
  EPA STORM WATER MANAGEMENT MODEL - VERSION 5.1 (Build 5.1.012)
  --------------------------------------------------------------

  
  *********************************************************
  NOTE: The summary statistics displayed in this report are
  based on results found at every computational time step,  
  not just on results from each reporting time step.
  *********************************************************
  
  ****************
  Analysis Options
  ****************
  Flow Units ............... CMS
  Process Models:
    Rainfall/Runoff ........ NO
    RDII ................... NO
    Snowmelt ............... NO
    Groundwater ............ NO
    Flow Routing ........... YES
    Ponding Allowed ........ NO
    Water Quality .......... NO
  Flow Routing Method ...... DYNWAVE
  Starting Date ............ 08/05/2016 00:00:00
  Ending Date .............. 08/11/2016 00:00:00
  Antecedent Dry Days ...... 0.0
  Report Time Step ......... 00:15:00
  Routing Time Step ........ 30.00 sec
  Variable Time Step ....... YES
  Maximum Trials ........... 8
  Number of Threads ........ 8
  Head Tolerance ........... 0.000100 m
  
  
  **************************        Volume        Volume
  Flow Routing Continuity        hectare-m      10^6 ltr
  **************************     ---------     ---------
  Dry Weather Inflow .......         0.000         0.000
  Wet Weather Inflow .......         0.000         0.000
  Groundwater Inflow .......         0.000         0.000
  RDII Inflow ..............         0.000         0.000
  External Inflow ..........      1229.099     12291.120
  External Outflow .........      1069.928     10699.392
  Flooding Loss ............         0.000         0.000
  Evaporation Loss .........         0.000         0.000
  Exfiltration Loss ........         0.000         0.000
  Initial Stored Volume ....       222.863      2228.657
  Final Stored Volume ......       383.086      3830.901
  Continuity Error (%) .....        -0.072
  
  
  ***************************
  Time-Step Critical Elements
  ***************************
  Link L_47950 (55.77%)
  Link L_74650 (11.49%)
  Link L_62850 (9.57%)
  Link L_87150 (6.61%)
  Link L_84050 (5.62%)
  
  
  ********************************
  Highest Flow Instability Indexes
  ********************************
  All links are stable.
  
  
  *************************
  Routing Time Step Summary
  *************************
  Minimum Time Step           :     3.35 sec
  Average Time Step           :    11.21 sec
  Maximum Time Step           :    18.13 sec
  Percent in Steady State     :    33.33
  Average Iterations per Step :     1.58
  Percent Not Converging      :     0.27
  
  
  ******************
  Node Depth Summary
  ******************
  
  ---------------------------------------------------------------------------------
                                 Average  Maximum  Maximum  Time of Max    Reported
                                   Depth    Depth      HGL   Occurrence   Max Depth
  Node                 Type       Meters   Meters   Meters  days hr:min      Meters
  ---------------------------------------------------------------------------------
  N_HWY183             JUNCTION     0.39     1.43   123.65     5  14:32        1.43
  N_92200              JUNCTION     0.39     1.42   123.61     5  14:34        1.42
  N_92100              JUNCTION     0.39     1.42   123.58     5  14:35        1.42
  N_92000              JUNCTION     0.39     1.41   123.54     5  14:36        1.41
  N_91900              JUNCTION     0.39     1.41   123.51     5  14:36        1.40
  N_91800              JUNCTION     0.39     1.40   123.47     5  14:37        1.40
  N_91700              JUNCTION     0.39     1.39   123.43     5  14:37        1.38
  N_D1a                JUNCTION     0.39     1.38   123.39     5  14:38        1.38
  N_91500              JUNCTION     0.39     1.37   123.35     5  14:39        1.37
  N_91400              JUNCTION     0.39     1.36   123.31     5  14:39        1.36
  N_91300              JUNCTION     0.39     1.34   123.26     5  14:40        1.34
  N_91200              JUNCTION     0.37     1.30   123.19     5  14:44        1.30
  N_91100              JUNCTION     0.35     1.27   123.13     5  14:46        1.27
  N_91000              JUNCTION     0.35     1.26   123.09     5  14:48        1.26
  N_90900              JUNCTION     0.35     1.26   123.06     5  14:50        1.25
  N_90800              JUNCTION     0.34     1.25   123.02     5  14:51        1.25
  N_90700              JUNCTION     0.34     1.25   122.99     5  14:52        1.25
  N_90600              JUNCTION     0.34     1.26   122.97     5  14:53        1.26
  N_90500              JUNCTION     0.35     1.27   122.95     5  14:55        1.27
  N_90400              JUNCTION     0.35     1.28   122.93     5  14:56        1.28
  N_90300              JUNCTION     0.36     1.29   122.91     5  14:57        1.29
  N_90200              JUNCTION     0.36     1.30   122.89     5  14:58        1.30
  N_D2                 JUNCTION     0.37     1.31   122.87     5  15:01        1.31
  N_90000              JUNCTION     0.37     1.32   122.85     5  15:02        1.32
  N_89900              JUNCTION     0.39     1.34   122.84     5  15:04        1.34
  N_89800              JUNCTION     0.40     1.35   122.82     5  15:05        1.35
  N_89700              JUNCTION     0.40     1.36   122.80     5  15:06        1.35
  N_U2410720192        JUNCTION     0.39     1.32   122.73     5  15:08        1.32
  N_89500              JUNCTION     0.36     1.28   122.66     5  15:14        1.28
  N_WWTP1              JUNCTION     0.37     1.30   122.65     5  15:15        1.30
  N_89300              JUNCTION     0.38     1.32   122.64     5  15:15        1.32
  N_89200              JUNCTION     0.39     1.34   122.63     5  15:16        1.34
  N_89100              JUNCTION     0.40     1.35   122.61     5  15:17        1.35
  N_89000              JUNCTION     0.41     1.37   122.60     5  15:18        1.37
  N_88900              JUNCTION     0.41     1.38   122.58     5  15:19        1.38
  N_88800              JUNCTION     0.42     1.40   122.57     5  15:20        1.40
  N_88700              JUNCTION     0.43     1.41   122.55     5  15:20        1.41
  N_88600              JUNCTION     0.44     1.43   122.54     5  15:21        1.43
  N_88500              JUNCTION     0.45     1.45   122.53     5  15:21        1.45
  N_88400              JUNCTION     0.46     1.46   122.51     5  15:22        1.45
  N_88300              JUNCTION     0.46     1.46   122.48     5  15:23        1.45
  N_88200              JUNCTION     0.46     1.46   122.45     5  15:25        1.45
  N_88100              JUNCTION     0.46     1.46   122.42     5  15:25        1.46
  N_88000              JUNCTION     0.47     1.47   122.40     5  15:26        1.47
  N_87900              JUNCTION     0.47     1.48   122.38     5  15:26        1.48
  N_87800              JUNCTION     0.49     1.50   122.37     5  15:27        1.50
  N_WALNUTCK           JUNCTION     0.50     1.52   122.36     5  15:27        1.52
  N_87600              JUNCTION     0.51     1.52   122.33     5  15:28        1.52
  N_87500              JUNCTION     0.50     1.51   122.29     5  15:32        1.51
  N_87400              JUNCTION     0.51     1.51   122.26     5  15:32        1.51
  N_87300              JUNCTION     0.52     1.52   122.24     5  15:32        1.52
  N_U2410720194        JUNCTION     0.52     1.51   122.20     5  15:33        1.51
  N_87100              JUNCTION     0.50     1.47   122.13     5  15:37        1.47
  N_87000              JUNCTION     0.48     1.43   122.06     5  15:39        1.43
  N_86900              JUNCTION     0.46     1.38   121.98     5  15:44        1.38
  N_86800              JUNCTION     0.45     1.37   121.94     5  15:46        1.37
  N_86700              JUNCTION     0.45     1.37   121.91     5  15:48        1.37
  N_86600              JUNCTION     0.44     1.36   121.87     5  15:50        1.36
  N_86500              JUNCTION     0.43     1.36   121.84     5  15:52        1.35
  N_86400              JUNCTION     0.43     1.37   121.82     5  15:53        1.36
  N_86300              JUNCTION     0.44     1.38   121.80     5  15:54        1.38
  N_86200              JUNCTION     0.45     1.40   121.79     5  15:55        1.39
  N_86100              JUNCTION     0.46     1.41   121.77     5  15:56        1.41
  N_86000              JUNCTION     0.47     1.42   121.75     5  15:56        1.42
  N_85900              JUNCTION     0.48     1.44   121.74     5  15:57        1.44
  N_85800              JUNCTION     0.48     1.44   121.71     5  15:57        1.44
  N_85700              JUNCTION     0.48     1.44   121.68     5  15:59        1.44
  N_85600              JUNCTION     0.49     1.46   121.67     5  16:00        1.46
  N_D3a                JUNCTION     0.50     1.47   121.65     5  16:01        1.47
  N_85400              JUNCTION     0.50     1.47   121.62     5  16:02        1.47
  N_85300              JUNCTION     0.50     1.46   121.58     5  16:03        1.46
  N_85200              JUNCTION     0.49     1.45   121.54     5  16:07        1.45
  N_85100              JUNCTION     0.50     1.46   121.52     5  16:07        1.45
  N_85000              JUNCTION     0.50     1.46   121.49     5  16:08        1.45
  N_84900              JUNCTION     0.50     1.45   121.45     5  16:09        1.45
  N_84800              JUNCTION     0.50     1.45   121.42     5  16:10        1.45
  N_84700              JUNCTION     0.49     1.44   121.38     5  16:11        1.44
  N_84600              JUNCTION     0.49     1.43   121.34     5  16:12        1.43
  N_84500              JUNCTION     0.49     1.44   121.32     5  16:14        1.44
  N_84400              JUNCTION     0.50     1.44   121.29     5  16:14        1.44
  N_84300              JUNCTION     0.50     1.45   121.27     5  16:15        1.45
  N_84200              JUNCTION     0.51     1.46   121.25     5  16:16        1.46
  N_84100              JUNCTION     0.52     1.46   121.22     5  16:17        1.46
  N_84000              JUNCTION     0.50     1.43   121.16     5  16:19        1.43
  N_83900              JUNCTION     0.50     1.42   121.12     5  16:21        1.42
  N_83800              JUNCTION     0.51     1.43   121.10     5  16:21        1.43
  N_83700              JUNCTION     0.51     1.43   121.07     5  16:22        1.43
  N_83600              JUNCTION     0.49     1.40   121.01     5  16:25        1.39
  N_83500              JUNCTION     0.49     1.39   120.97     5  16:26        1.39
  N_83400              JUNCTION     0.49     1.39   120.94     5  16:27        1.39
  N_83300              JUNCTION     0.49     1.37   120.89     5  16:29        1.37
  N_83200              JUNCTION     0.48     1.36   120.85     5  16:31        1.36
  N_83100              JUNCTION     0.48     1.36   120.82     5  16:32        1.36
  N_83000              JUNCTION     0.48     1.36   120.79     5  16:33        1.35
  N_82900              JUNCTION     0.48     1.35   120.75     5  16:35        1.35
  N_82800              JUNCTION     0.48     1.34   120.71     5  16:36        1.34
  N_82700              JUNCTION     0.48     1.34   120.68     5  16:38        1.34
  N_82600              JUNCTION     0.47     1.34   120.65     5  16:39        1.34
  N_82500              JUNCTION     0.47     1.33   120.61     5  16:41        1.33
  N_82400              JUNCTION     0.47     1.32   120.57     5  16:42        1.32
  N_82300              JUNCTION     0.47     1.33   120.55     5  16:43        1.33
  N_82200              JUNCTION     0.48     1.34   120.53     5  16:44        1.34
  N_82100              JUNCTION     0.48     1.33   120.49     5  16:45        1.33
  N_82000              JUNCTION     0.48     1.33   120.46     5  16:47        1.33
  N_81900              JUNCTION     0.48     1.32   120.42     5  16:48        1.32
  N_81800              JUNCTION     0.47     1.31   120.38     5  16:49        1.31
  N_81700              JUNCTION     0.47     1.30   120.34     5  16:51        1.30
  N_81600              JUNCTION     0.46     1.29   120.30     5  16:53        1.29
  N_81500              JUNCTION     0.46     1.28   120.26     5  16:54        1.28
  N_D1b                JUNCTION     0.46     1.29   120.24     5  16:55        1.29
  N_TROLLHGZ           JUNCTION     0.47     1.29   120.21     5  16:56        1.29
  N_81200              JUNCTION     0.47     1.30   120.19     5  16:59        1.30
  N_81100              JUNCTION     0.47     1.29   120.15     5  16:59        1.29
  N_81000              JUNCTION     0.47     1.28   120.11     5  16:59        1.28
  N_80900              JUNCTION     0.47     1.28   120.08     5  17:02        1.28
  N_80800              JUNCTION     0.47     1.28   120.05     5  17:03        1.28
  N_80700              JUNCTION     0.47     1.28   120.02     5  17:05        1.28
  N_80600              JUNCTION     0.47     1.28   119.99     5  17:06        1.27
  N_80500              JUNCTION     0.47     1.26   119.94     5  17:07        1.26
  N_80400              JUNCTION     0.46     1.24   119.89     5  17:10        1.24
  N_80300              JUNCTION     0.45     1.22   119.84     5  17:12        1.22
  N_D3b                JUNCTION     0.45     1.21   119.80     5  17:13        1.21
  N_80100              JUNCTION     0.44     1.19   119.75     5  17:16        1.19
  N_80000              JUNCTION     0.43     1.18   119.71     5  17:18        1.18
  N_79900              JUNCTION     0.44     1.19   119.69     5  17:19        1.19
  N_79800              JUNCTION     0.44     1.20   119.67     5  17:20        1.20
  N_D4                 JUNCTION     0.44     1.20   119.64     5  17:22        1.20
  N_79600              JUNCTION     0.45     1.20   119.61     5  17:23        1.20
  N_79500              JUNCTION     0.44     1.19   119.57     5  17:25        1.19
  N_79400              JUNCTION     0.43     1.17   119.52     5  17:28        1.17
  N_79300              JUNCTION     0.43     1.17   119.49     5  17:30        1.17
  N_79200              JUNCTION     0.42     1.16   119.45     5  17:32        1.16
  N_79100              JUNCTION     0.42     1.15   119.41     5  17:34        1.15
  N_79000              JUNCTION     0.43     1.16   119.39     5  17:35        1.16
  N_78900              JUNCTION     0.43     1.16   119.36     5  17:37        1.16
  N_78800              JUNCTION     0.43     1.17   119.34     5  17:40        1.17
  N_78700              JUNCTION     0.44     1.17   119.31     5  17:40        1.17
  N_78600              JUNCTION     0.44     1.17   119.28     5  17:42        1.17
  N_78500              JUNCTION     0.44     1.17   119.25     5  17:44        1.17
  N_78400              JUNCTION     0.44     1.17   119.22     5  17:46        1.17
  N_78300              JUNCTION     0.44     1.16   119.18     5  17:50        1.16
  N_78200              JUNCTION     0.44     1.16   119.15     5  17:49        1.16
  N_78100              JUNCTION     0.44     1.17   119.13     5  17:52        1.17
  N_78000              JUNCTION     0.44     1.17   119.10     5  17:54        1.17
  N_77900              JUNCTION     0.44     1.16   119.06     5  17:58        1.16
  N_77800              JUNCTION     0.44     1.15   119.02     5  18:00        1.15
  N_77700              JUNCTION     0.44     1.15   118.99     5  18:02        1.15
  N_77600              JUNCTION     0.43     1.15   118.96     5  18:05        1.15
  N_77500              JUNCTION     0.43     1.15   118.93     5  18:06        1.15
  N_77400              JUNCTION     0.44     1.16   118.91     5  18:09        1.16
  N_77300              JUNCTION     0.44     1.16   118.88     5  18:10        1.16
  N_77200              JUNCTION     0.44     1.16   118.85     5  18:13        1.16
  N_77100              JUNCTION     0.45     1.17   118.83     5  18:15        1.17
  N_77000              JUNCTION     0.45     1.17   118.80     5  18:16        1.17
  N_76900              JUNCTION     0.45     1.17   118.77     5  18:19        1.16
  N_76800              JUNCTION     0.44     1.16   118.73     5  18:22        1.16
  N_76700              JUNCTION     0.43     1.15   118.69     5  18:25        1.15
  N_76600              JUNCTION     0.44     1.16   118.67     5  18:27        1.16
  N_76500              JUNCTION     0.45     1.18   118.66     5  18:28        1.18
  N_76400              JUNCTION     0.45     1.18   118.63     5  18:29        1.18
  N_76300              JUNCTION     0.45     1.18   118.60     5  18:31        1.18
  N_76200              JUNCTION     0.45     1.19   118.58     5  18:32        1.19
  N_76100              JUNCTION     0.46     1.20   118.56     5  18:34        1.20
  N_76000              JUNCTION     0.47     1.22   118.55     5  18:35        1.22
  N_75900              JUNCTION     0.48     1.24   118.54     5  18:35        1.23
  N_75800              JUNCTION     0.49     1.25   118.52     5  18:36        1.25
  N_75700              JUNCTION     0.50     1.26   118.50     5  18:37        1.26
  N_75600              JUNCTION     0.50     1.26   118.47     5  18:39        1.26
  N_75500              JUNCTION     0.51     1.27   118.45     5  18:40        1.27
  N_75400              JUNCTION     0.51     1.27   118.42     5  18:41        1.27
  N_75300              JUNCTION     0.50     1.26   118.38     5  18:43        1.26
  N_75200              JUNCTION     0.51     1.27   118.36     5  18:44        1.27
  N_75100              JUNCTION     0.52     1.28   118.34     5  18:45        1.28
  N_75000              JUNCTION     0.52     1.28   118.31     5  18:47        1.28
  N_74900              JUNCTION     0.53     1.29   118.29     5  18:48        1.29
  N_74800              JUNCTION     0.54     1.29   118.26     5  18:49        1.29
  N_74700              JUNCTION     0.52     1.25   118.19     5  18:51        1.25
  N_74600              JUNCTION     0.47     1.18   118.09     5  18:59        1.18
  N_74500              JUNCTION     0.46     1.16   118.04     5  19:01        1.16
  N_74400              JUNCTION     0.47     1.18   118.03     5  19:03        1.18
  N_74300              JUNCTION     0.48     1.19   118.01     5  19:03        1.18
  N_74200              JUNCTION     0.48     1.19   117.98     5  19:07        1.18
  N_74100              JUNCTION     0.48     1.18   117.94     5  19:06        1.18
  N_74000              JUNCTION     0.47     1.17   117.90     5  19:08        1.17
  N_73900              JUNCTION     0.47     1.18   117.88     5  19:11        1.18
  N_73800              JUNCTION     0.47     1.18   117.85     5  19:13        1.18
  N_73700              JUNCTION     0.48     1.18   117.82     5  19:14        1.18
  N_73600              JUNCTION     0.48     1.19   117.80     5  19:15        1.19
  N_73500              JUNCTION     0.49     1.20   117.78     5  19:16        1.20
  N_73400              JUNCTION     0.50     1.21   117.76     5  19:17        1.21
  N_73300              JUNCTION     0.51     1.22   117.74     5  19:18        1.22
  N_73200              JUNCTION     0.51     1.23   117.72     5  19:19        1.23
  N_73100              JUNCTION     0.51     1.23   117.69     5  19:21        1.23
  N_73000              JUNCTION     0.51     1.22   117.65     5  19:22        1.22
  N_72900              JUNCTION     0.50     1.20   117.60     5  19:24        1.20
  N_72800              JUNCTION     0.49     1.19   117.56     5  19:26        1.19
  N_72700              JUNCTION     0.50     1.19   117.53     5  19:28        1.19
  N_72600              JUNCTION     0.50     1.19   117.50     5  19:29        1.19
  N_72500              JUNCTION     0.51     1.20   117.48     5  19:30        1.20
  N_72400              JUNCTION     0.51     1.21   117.46     5  19:30        1.21
  N_72300              JUNCTION     0.52     1.21   117.43     5  19:33        1.21
  N_72200              JUNCTION     0.51     1.20   117.39     5  19:35        1.20
  N_72100              JUNCTION     0.51     1.19   117.35     5  19:36        1.18
  N_72000              JUNCTION     0.50     1.16   117.29     5  19:39        1.16
  N_71900              JUNCTION     0.49     1.16   117.26     5  19:41        1.16
  N_71800              JUNCTION     0.50     1.16   117.23     5  19:43        1.16
  N_71700              JUNCTION     0.50     1.16   117.20     5  19:45        1.16
  N_71600              JUNCTION     0.49     1.15   117.16     5  19:47        1.15
  N_71500              JUNCTION     0.48     1.12   117.10     5  19:51        1.12
  N_71400              JUNCTION     0.48     1.11   117.06     5  19:53        1.11
  N_71300              JUNCTION     0.48     1.11   117.03     5  19:56        1.11
  N_71200              JUNCTION     0.47     1.09   116.98     5  20:00        1.09
  N_71100              JUNCTION     0.45     1.06   116.92     5  20:05        1.06
  N_71000              JUNCTION     0.44     1.05   116.88     5  20:08        1.05
  N_70900              JUNCTION     0.43     1.04   116.84     5  20:12        1.04
  N_70800              JUNCTION     0.44     1.05   116.82     5  20:14        1.05
  N_70700              JUNCTION     0.45     1.07   116.81     5  20:15        1.07
  N_70600              JUNCTION     0.47     1.09   116.80     5  20:15        1.09
  N_70500              JUNCTION     0.49     1.12   116.80     5  20:15        1.12
  N_70400              JUNCTION     0.50     1.14   116.79     5  20:16        1.14
  N_70300              JUNCTION     0.51     1.15   116.77     5  20:17        1.15
  N_70200              JUNCTION     0.50     1.13   116.72     5  20:20        1.13
  N_70100              JUNCTION     0.50     1.12   116.68     5  20:22        1.12
  N_70000              JUNCTION     0.49     1.10   116.63     5  20:25        1.10
  N_69900              JUNCTION     0.48     1.08   116.58     5  20:28        1.08
  N_TROLL416289        JUNCTION     0.48     1.08   116.55     5  20:31        1.08
  N_69700              JUNCTION     0.48     1.08   116.52     5  20:33        1.07
  N_69600              JUNCTION     0.48     1.07   116.48     5  20:36        1.07
  N_69500              JUNCTION     0.49     1.09   116.47     5  20:37        1.09
  N_WWTP2              JUNCTION     0.50     1.10   116.45     5  20:38        1.10
  N_69300              JUNCTION     0.50     1.10   116.42     5  20:40        1.10
  N_69200              JUNCTION     0.50     1.10   116.39     5  20:42        1.10
  N_69100              JUNCTION     0.50     1.10   116.36     5  20:43        1.10
  N_69000              JUNCTION     0.51     1.11   116.34     5  20:45        1.11
  N_68900              JUNCTION     0.51     1.11   116.31     5  20:46        1.11
  N_ONIONCK            JUNCTION     0.53     1.13   116.30     5  20:47        1.13
  N_68700              JUNCTION     0.54     1.15   116.29     5  20:48        1.15
  N_68600              JUNCTION     0.54     1.15   116.26     5  20:49        1.15
  N_68500              JUNCTION     0.55     1.16   116.24     5  20:50        1.16
  N_68400              JUNCTION     0.56     1.17   116.22     5  20:51        1.17
  N_68300              JUNCTION     0.54     1.14   116.16     5  20:54        1.14
  N_68200              JUNCTION     0.53     1.12   116.11     5  20:56        1.12
  N_68100              JUNCTION     0.54     1.13   116.09     5  20:57        1.13
  N_68000              JUNCTION     0.55     1.14   116.07     5  20:58        1.14
  N_67900              JUNCTION     0.55     1.14   116.04     5  21:00        1.14
  N_67800              JUNCTION     0.54     1.12   115.99     5  21:02        1.12
  N_67700              JUNCTION     0.54     1.12   115.96     5  21:04        1.12
  N_67600              JUNCTION     0.53     1.11   115.92     5  21:06        1.11
  N_67500              JUNCTION     0.53     1.10   115.88     5  21:08        1.10
  N_67400              JUNCTION     0.52     1.08   115.83     5  21:11        1.08
  N_67300              JUNCTION     0.51     1.07   115.79     5  21:13        1.07
  N_67200              JUNCTION     0.51     1.06   115.75     5  21:15        1.06
  N_67100              JUNCTION     0.50     1.05   115.71     5  21:18        1.05
  N_67000              JUNCTION     0.50     1.04   115.67     5  21:21        1.04
  N_66900              JUNCTION     0.50     1.04   115.64     5  21:24        1.04
  N_66800              JUNCTION     0.49     1.02   115.59     5  21:27        1.02
  N_66700              JUNCTION     0.49     1.03   115.57     5  21:30        1.03
  N_66600              JUNCTION     0.50     1.04   115.55     5  21:31        1.04
  N_66500              JUNCTION     0.51     1.05   115.53     5  21:33        1.05
  N_66400              JUNCTION     0.51     1.05   115.50     5  21:35        1.05
  N_66300              JUNCTION     0.52     1.06   115.48     5  21:37        1.06
  N_66200              JUNCTION     0.51     1.05   115.44     5  21:40        1.05
  N_66100              JUNCTION     0.51     1.04   115.40     5  21:44        1.04
  N_66000              JUNCTION     0.51     1.04   115.37     5  21:47        1.04
  N_65900              JUNCTION     0.51     1.04   115.34     5  21:50        1.04
  N_65800              JUNCTION     0.50     1.03   115.30     5  21:54        1.03
  N_65700              JUNCTION     0.49     1.02   115.26     5  21:58        1.02
  N_65600              JUNCTION     0.49     1.01   115.22     5  22:03        1.01
  N_65500              JUNCTION     0.48     1.01   115.19     5  22:06        1.01
  N_65400              JUNCTION     0.49     1.02   115.17     5  22:08        1.02
  N_65300              JUNCTION     0.50     1.03   115.15     5  22:10        1.03
  N_65200              JUNCTION     0.50     1.04   115.13     5  22:12        1.04
  N_65100              JUNCTION     0.50     1.04   115.10     5  22:14        1.04
  N_65000              JUNCTION     0.51     1.05   115.08     5  22:17        1.05
  N_64900              JUNCTION     0.51     1.05   115.05     5  22:19        1.05
  N_64800              JUNCTION     0.51     1.06   115.03     5  22:21        1.06
  N_64700              JUNCTION     0.51     1.07   115.01     5  22:23        1.07
  N_64600              JUNCTION     0.52     1.08   114.99     5  22:25        1.08
  N_64500              JUNCTION     0.53     1.09   114.97     5  22:26        1.09
  N_64400              JUNCTION     0.54     1.11   114.96     5  22:27        1.11
  N_64300              JUNCTION     0.55     1.13   114.95     5  22:28        1.13
  N_64200              JUNCTION     0.57     1.15   114.94     5  22:28        1.15
  N_64100              JUNCTION     0.57     1.16   114.92     5  22:30        1.16
  N_64000              JUNCTION     0.58     1.16   114.89     5  22:31        1.16
  N_63900              JUNCTION     0.58     1.17   114.87     5  22:32        1.17
  N_63800              JUNCTION     0.60     1.19   114.86     5  22:33        1.19
  N_63700              JUNCTION     0.61     1.21   114.85     5  22:34        1.20
  N_63600              JUNCTION     0.62     1.22   114.83     5  22:34        1.22
  N_63500              JUNCTION     0.63     1.24   114.82     5  22:35        1.24
  N_63400              JUNCTION     0.65     1.25   114.80     5  22:35        1.25
  N_63300              JUNCTION     0.65     1.26   114.78     5  22:36        1.26
  N_63200              JUNCTION     0.64     1.24   114.73     5  22:38        1.24
  N_63100              JUNCTION     0.63     1.22   114.68     5  22:40        1.22
  N_63000              JUNCTION     0.63     1.22   114.65     5  22:41        1.22
  N_62900              JUNCTION     0.63     1.21   114.61     5  22:42        1.21
  N_62800              JUNCTION     0.60     1.15   114.52     5  22:46        1.15
  N_62700              JUNCTION     0.58     1.12   114.46     5  22:49        1.12
  N_62600              JUNCTION     0.58     1.10   114.41     5  22:51        1.10
  N_62500              JUNCTION     0.55     1.06   114.34     5  22:55        1.06
  N_62400              JUNCTION     0.54     1.04   114.29     5  22:59        1.04
  N_GILLELANDCK        JUNCTION     0.54     1.04   114.26     5  23:01        1.04
  N_62200              JUNCTION     0.54     1.03   114.22     5  23:03        1.03
  N_62100              JUNCTION     0.53     1.03   114.19     5  23:05        1.03
  N_62000              JUNCTION     0.52     1.01   114.14     5  23:09        1.01
  N_61900              JUNCTION     0.51     1.00   114.10     5  23:12        1.00
  N_61800              JUNCTION     0.51     1.00   114.07     5  23:14        1.00
  N_61700              JUNCTION     0.52     1.01   114.05     5  23:15        1.01
  N_61600              JUNCTION     0.53     1.02   114.03     5  23:17        1.02
  N_61500              JUNCTION     0.53     1.03   114.01     5  23:18        1.03
  N_61400              JUNCTION     0.54     1.03   113.98     5  23:20        1.03
  N_61300              JUNCTION     0.54     1.03   113.95     5  23:22        1.03
  N_61200              JUNCTION     0.54     1.04   113.93     5  23:23        1.04
  N_61100              JUNCTION     0.55     1.05   113.91     5  23:24        1.05
  N_61000              JUNCTION     0.56     1.06   113.89     5  23:25        1.06
  N_60900              JUNCTION     0.57     1.08   113.88     5  23:26        1.08
  N_60800              JUNCTION     0.58     1.09   113.86     5  23:26        1.09
  N_60700              JUNCTION     0.58     1.08   113.82     5  23:28        1.08
  N_60600              JUNCTION     0.58     1.08   113.79     5  23:29        1.08
  N_60500              JUNCTION     0.58     1.08   113.76     5  23:31        1.08
  N_60400              JUNCTION     0.57     1.06   113.71     5  23:32        1.06
  N_60300              JUNCTION     0.56     1.04   113.66     5  23:35        1.04
  N_60200              JUNCTION     0.54     1.01   113.60     5  23:37        1.01
  N_60100              JUNCTION     0.54     1.00   113.56     5  23:39        1.00
  N_60000              JUNCTION     0.51     0.96   113.49     5  23:43        0.96
  N_59900              JUNCTION     0.52     0.96   113.46     5  23:45        0.96
  N_59800              JUNCTION     0.52     0.97   113.44     5  23:46        0.97
  N_59700              JUNCTION     0.50     0.94   113.38     5  23:50        0.94
  N_59600              JUNCTION     0.50     0.94   113.35     5  23:52        0.94
  N_59500              JUNCTION     0.50     0.94   113.32     5  23:54        0.94
  N_59400              JUNCTION     0.51     0.94   113.29     5  23:55        0.94
  N_59300              JUNCTION     0.51     0.94   113.26     5  23:58        0.94
  N_59200              JUNCTION     0.51     0.94   113.23     5  23:59        0.94
  N_59100              JUNCTION     0.51     0.94   113.20     6  00:00        0.94
  N_59000              JUNCTION     0.51     0.95   113.18     6  00:00        0.95
  N_58900              JUNCTION     0.52     0.95   113.15     6  00:00        0.95
  N_TROLLWB            JUNCTION     0.52     0.95   113.12     6  00:00        0.95
  N_58700              JUNCTION     0.52     0.95   113.09     6  00:00        0.95
  N_58600              JUNCTION     0.50     0.91   113.02     6  00:00        0.91
  N_58500              JUNCTION     0.47     0.86   112.94     6  00:00        0.86
  N_58400              JUNCTION     0.44     0.82   112.87     6  00:00        0.82
  N_58300              JUNCTION     0.43     0.80   112.82     3  23:36        0.80
  N_WBLCRA             JUNCTION     0.42     0.78   112.77     3  23:42        0.78
  N_58100              JUNCTION     0.42     0.79   112.75     3  23:46        0.79
  N_58000              JUNCTION     0.41     0.79   112.72     3  23:51        0.79
  N_57900              JUNCTION     0.41     0.78   112.68     3  23:56        0.78
  N_57800              JUNCTION     0.40     0.78   112.65     4  00:00        0.78
  N_57700              JUNCTION     0.40     0.79   112.63     4  00:04        0.79
  N_57600              JUNCTION     0.41     0.80   112.61     4  00:06        0.80
  N_57500              JUNCTION     0.42     0.82   112.60     4  00:07        0.82
  N_57400              JUNCTION     0.43     0.84   112.59     4  00:09        0.84
  N_57300              JUNCTION     0.45     0.86   112.58     4  00:10        0.86
  N_57200              JUNCTION     0.46     0.88   112.57     4  00:10        0.88
  N_57100              JUNCTION     0.47     0.90   112.56     4  00:11        0.90
  N_57000              JUNCTION     0.49     0.93   112.56     4  00:12        0.93
  N_56900              JUNCTION     0.50     0.95   112.55     4  00:13        0.95
  N_56800              JUNCTION     0.52     0.97   112.54     4  00:13        0.97
  N_56700              JUNCTION     0.53     0.99   112.53     4  00:14        0.99
  N_56600              JUNCTION     0.55     1.01   112.52     4  00:15        1.01
  N_56500              JUNCTION     0.56     1.03   112.51     4  00:15        1.03
  N_56400              JUNCTION     0.57     1.04   112.49     4  00:16        1.04
  N_56300              JUNCTION     0.58     1.06   112.48     4  00:17        1.06
  N_56200              JUNCTION     0.59     1.08   112.47     4  00:17        1.08
  N_56100              JUNCTION     0.60     1.09   112.45     4  00:18        1.09
  N_56000              JUNCTION     0.60     1.09   112.42     4  00:19        1.09
  N_55900              JUNCTION     0.59     1.07   112.37     4  00:21        1.07
  N_55800              JUNCTION     0.58     1.05   112.32     4  00:23        1.05
  N_55700              JUNCTION     0.57     1.04   112.28     4  00:25        1.04
  N_55600              JUNCTION     0.56     1.03   112.24     4  00:27        1.03
  N_55500              JUNCTION     0.56     1.03   112.21     4  00:29        1.03
  N_55400              JUNCTION     0.56     1.03   112.18     4  00:30        1.03
  N_55300              JUNCTION     0.58     1.05   112.17     4  00:30        1.05
  N_55200              JUNCTION     0.59     1.07   112.16     4  00:31        1.07
  N_55100              JUNCTION     0.60     1.08   112.14     4  00:31        1.08
  N_55000              JUNCTION     0.61     1.08   112.11     4  00:32        1.08
  N_54900              JUNCTION     0.60     1.07   112.07     4  00:34        1.07
  N_54800              JUNCTION     0.58     1.05   112.02     4  00:36        1.05
  N_54700              JUNCTION     0.57     1.03   111.97     4  00:37        1.03
  N_54600              JUNCTION     0.57     1.02   111.93     4  00:39        1.02
  N_54500              JUNCTION     0.56     1.01   111.89     4  00:41        1.01
  N_54400              JUNCTION     0.55     1.00   111.85     4  00:42        1.00
  N_54300              JUNCTION     0.55     1.00   111.82     4  00:44        1.00
  N_54200              JUNCTION     0.55     1.00   111.79     4  00:45        1.00
  N_54100              JUNCTION     0.54     0.98   111.74     4  00:48        0.98
  N_54000              JUNCTION     0.55     1.00   111.73     4  00:48        1.00
  N_53900              JUNCTION     0.57     1.01   111.71     4  00:49        1.01
  N_53800              JUNCTION     0.56     1.00   111.67     4  00:51        1.00
  N_53700              JUNCTION     0.55     0.98   111.62     4  00:53        0.98
  N_53600              JUNCTION     0.54     0.97   111.58     4  00:55        0.97
  N_53500              JUNCTION     0.54     0.97   111.55     4  00:57        0.97
  N_53400              JUNCTION     0.54     0.96   111.51     4  00:59        0.96
  N_53300              JUNCTION     0.54     0.97   111.49     4  01:00        0.97
  N_53200              JUNCTION     0.54     0.96   111.45     4  01:03        0.96
  N_53100              JUNCTION     0.53     0.94   111.40     4  01:07        0.94
  N_53000              JUNCTION     0.51     0.91   111.34     4  01:11        0.91
  N_52900              JUNCTION     0.48     0.87   111.27     4  01:19        0.87
  N_52800              JUNCTION     0.47     0.85   111.22     4  01:26        0.85
  N_52700              JUNCTION     0.47     0.85   111.19     4  01:30        0.85
  N_52600              JUNCTION     0.46     0.85   111.16     4  01:35        0.85
  N_52500              JUNCTION     0.47     0.85   111.13     4  01:39        0.85
  N_52400              JUNCTION     0.47     0.86   111.11     4  01:42        0.86
  N_52300              JUNCTION     0.48     0.87   111.09     4  01:45        0.87
  N_52200              JUNCTION     0.48     0.88   111.07     4  01:48        0.88
  N_52100              JUNCTION     0.48     0.88   111.04     4  01:53        0.88
  N_52000              JUNCTION     0.47     0.87   111.00     4  01:59        0.87
  N_51900              JUNCTION     0.46     0.87   110.97     4  02:04        0.87
  N_51800              JUNCTION     0.47     0.88   110.95     4  02:06        0.88
  N_51700              JUNCTION     0.47     0.89   110.93     4  02:09        0.89
  N_51600              JUNCTION     0.48     0.90   110.91     4  02:11        0.90
  N_51500              JUNCTION     0.49     0.92   110.90     4  02:13        0.92
  N_51400              JUNCTION     0.50     0.93   110.88     4  02:15        0.93
  N_51300              JUNCTION     0.50     0.95   110.87     4  02:17        0.95
  N_51200              JUNCTION     0.52     0.97   110.86     4  02:18        0.97
  N_51100              JUNCTION     0.53     0.99   110.85     4  02:20        0.99
  N_51000              JUNCTION     0.54     1.01   110.84     4  02:21        1.01
  N_50900              JUNCTION     0.55     1.02   110.82     4  02:22        1.02
  N_50800              JUNCTION     0.56     1.04   110.81     4  02:24        1.04
  N_50700              JUNCTION     0.57     1.05   110.79     4  02:25        1.05
  N_50600              JUNCTION     0.58     1.07   110.78     4  02:26        1.07
  N_50500              JUNCTION     0.60     1.09   110.77     4  02:26        1.09
  N_50400              JUNCTION     0.61     1.11   110.76     4  02:27        1.11
  N_50300              JUNCTION     0.63     1.14   110.76     4  02:28        1.14
  N_50200              JUNCTION     0.64     1.16   110.75     4  02:28        1.16
  N_50100              JUNCTION     0.66     1.18   110.74     4  02:29        1.18
  N_50000              JUNCTION     0.67     1.20   110.73     4  02:30        1.20
  N_49900              JUNCTION     0.67     1.20   110.70     4  02:31        1.20
  N_49800              JUNCTION     0.67     1.20   110.67     4  02:33        1.20
  N_49700              JUNCTION     0.68     1.21   110.65     4  02:34        1.21
  N_49600              JUNCTION     0.69     1.22   110.63     4  02:35        1.22
  N_49500              JUNCTION     0.69     1.22   110.60     4  02:36        1.22
  N_49400              JUNCTION     0.66     1.19   110.54     4  02:40        1.19
  N_49300              JUNCTION     0.66     1.19   110.51     4  02:42        1.19
  N_49200              JUNCTION     0.66     1.20   110.49     4  02:43        1.20
  N_49100              JUNCTION     0.67     1.20   110.46     4  02:45        1.20
  N_49000              JUNCTION     0.68     1.22   110.45     4  02:45        1.22
  N_48900              JUNCTION     0.69     1.24   110.44     4  02:46        1.24
  N_48800              JUNCTION     0.71     1.27   110.44     4  02:46        1.27
  N_48700              JUNCTION     0.73     1.29   110.43     4  02:46        1.29
  N_48600              JUNCTION     0.75     1.32   110.43     4  02:46        1.32
  N_48500              JUNCTION     0.77     1.34   110.42     4  02:46        1.34
  N_48400              JUNCTION     0.78     1.36   110.41     4  02:46        1.36
  N_48300              JUNCTION     0.79     1.37   110.39     4  02:47        1.37
  N_48200              JUNCTION     0.80     1.38   110.37     4  02:47        1.38
  N_48100              JUNCTION     0.81     1.39   110.35     4  02:47        1.39
  N_48000              JUNCTION     0.80     1.37   110.30     4  02:47        1.37
  N_47900              JUNCTION     0.67     1.15   110.05     4  02:50        1.15
  N_47800              JUNCTION     0.55     0.95   109.82     4  02:56        0.95
  N_47700              JUNCTION     0.50     0.88   109.72     4  03:01        0.88
  N_47600              JUNCTION     0.49     0.87   109.68     4  03:03        0.87
  N_47500              JUNCTION     0.49     0.87   109.65     4  03:05        0.87
  N_47400              JUNCTION     0.49     0.86   109.61     4  03:07        0.86
  N_47300              JUNCTION     0.48     0.85   109.57     4  03:10        0.85
  N_47200              JUNCTION     0.47     0.84   109.53     4  03:12        0.84
  N_47100              JUNCTION     0.47     0.84   109.50     4  03:14        0.84
  N_47000              JUNCTION     0.48     0.85   109.48     4  03:16        0.85
  N_46900              JUNCTION     0.48     0.85   109.45     4  03:18        0.85
  N_46800              JUNCTION     0.48     0.86   109.43     4  03:19        0.86
  N_46700              JUNCTION     0.49     0.86   109.40     4  03:21        0.86
  N_46600              JUNCTION     0.49     0.86   109.37     4  03:23        0.86
  N_46500              JUNCTION     0.49     0.86   109.34     4  03:24        0.86
  N_46400              JUNCTION     0.49     0.87   109.32     4  03:26        0.87
  N_46300              JUNCTION     0.49     0.87   109.29     4  03:28        0.87
  N_46200              JUNCTION     0.50     0.87   109.26     4  03:29        0.87
  N_46100              JUNCTION     0.50     0.87   109.23     4  03:31        0.87
  N_46000              JUNCTION     0.49     0.87   109.20     4  03:33        0.87
  N_45900              JUNCTION     0.49     0.86   109.16     4  03:35        0.86
  N_45800              JUNCTION     0.49     0.86   109.13     4  03:38        0.86
  N_45700              JUNCTION     0.48     0.86   109.10     4  03:40        0.86
  N_45600              JUNCTION     0.48     0.86   109.07     4  03:41        0.86
  N_45500              JUNCTION     0.49     0.87   109.05     4  03:43        0.87
  N_45400              JUNCTION     0.49     0.87   109.02     4  03:45        0.87
  N_45300              JUNCTION     0.50     0.88   109.00     4  03:46        0.88
  N_45200              JUNCTION     0.51     0.90   108.99     4  03:47        0.90
  N_45100              JUNCTION     0.52     0.92   108.98     4  03:47        0.92
  N_45000              JUNCTION     0.53     0.93   108.96     4  03:48        0.93
  N_44900              JUNCTION     0.54     0.95   108.95     4  03:49        0.95
  N_44800              JUNCTION     0.54     0.95   108.92     4  03:50        0.95
  N_DRYCK              JUNCTION     0.53     0.92   108.86     4  03:53        0.92
  N_44600              JUNCTION     0.53     0.92   108.83     4  03:54        0.92
  N_44500              JUNCTION     0.52     0.91   108.79     4  03:56        0.91
  N_44400              JUNCTION     0.52     0.91   108.76     4  03:57        0.91
  N_44300              JUNCTION     0.52     0.91   108.73     4  03:59        0.91
  N_44200              JUNCTION     0.51     0.89   108.68     4  04:01        0.89
  N_44100              JUNCTION     0.51     0.89   108.65     4  04:03        0.89
  N_44000              JUNCTION     0.52     0.90   108.63     4  04:04        0.90
  N_43900              JUNCTION     0.53     0.92   108.62     4  04:04        0.92
  N_43800              JUNCTION     0.54     0.94   108.61     4  04:05        0.94
  N_43700              JUNCTION     0.54     0.92   108.56     4  04:07        0.92
  N_43600              JUNCTION     0.50     0.87   108.48     4  04:11        0.87
  N_43500              JUNCTION     0.48     0.84   108.42     4  04:14        0.84
  N_43400              JUNCTION     0.48     0.84   108.39     4  04:17        0.84
  N_43300              JUNCTION     0.48     0.83   108.35     4  04:19        0.83
  N_43200              JUNCTION     0.48     0.84   108.33     4  04:21        0.84
  N_43100              JUNCTION     0.48     0.84   108.30     4  04:23        0.84
  N_43000              JUNCTION     0.48     0.84   108.27     4  04:25        0.84
  N_42900              JUNCTION     0.48     0.84   108.24     4  04:27        0.84
  N_42800              JUNCTION     0.48     0.84   108.21     4  04:29        0.84
  N_42700              JUNCTION     0.48     0.83   108.17     4  04:32        0.83
  N_42600              JUNCTION     0.47     0.83   108.14     4  04:35        0.83
  N_42500              JUNCTION     0.47     0.82   108.10     4  04:39        0.82
  N_42400              JUNCTION     0.46     0.80   108.05     4  04:43        0.80
  N_42300              JUNCTION     0.45     0.80   108.02     4  04:46        0.80
  N_42200              JUNCTION     0.46     0.81   108.00     4  04:49        0.81
  N_42100              JUNCTION     0.47     0.82   107.98     4  04:50        0.82
  N_42000              JUNCTION     0.47     0.82   107.95     4  04:53        0.82
  N_41900              JUNCTION     0.46     0.82   107.92     4  04:57        0.82
  N_41800              JUNCTION     0.45     0.81   107.88     4  05:00        0.81
  N_41700              JUNCTION     0.45     0.82   107.86     4  05:03        0.82
  N_41600              JUNCTION     0.46     0.83   107.84     4  05:04        0.83
  N_41500              JUNCTION     0.47     0.85   107.83     4  05:06        0.85
  N_41400              JUNCTION     0.48     0.86   107.81     4  05:07        0.86
  N_41300              JUNCTION     0.49     0.88   107.80     4  05:08        0.88
  N_41200              JUNCTION     0.50     0.90   107.79     4  05:09        0.90
  N_41100              JUNCTION     0.52     0.91   107.77     4  05:10        0.91
  N_41000              JUNCTION     0.53     0.93   107.76     4  05:11        0.93
  N_40900              JUNCTION     0.55     0.95   107.75     4  05:11        0.95
  N_40800              JUNCTION     0.56     0.98   107.75     4  05:12        0.98
  N_40700              JUNCTION     0.58     1.00   107.74     4  05:12        1.00
  N_40600              JUNCTION     0.60     1.02   107.73     4  05:12        1.02
  N_40500              JUNCTION     0.60     1.03   107.71     4  05:13        1.03
  N_40400              JUNCTION     0.60     1.03   107.68     4  05:14        1.03
  N_40300              JUNCTION     0.60     1.03   107.65     4  05:15        1.03
  N_40200              JUNCTION     0.59     1.01   107.60     4  05:16        1.01
  N_40100              JUNCTION     0.58     0.98   107.54     4  05:18        0.98
  N_40000              JUNCTION     0.55     0.95   107.48     4  05:20        0.95
  N_39900              JUNCTION     0.52     0.89   107.39     4  05:24        0.89
  N_39800              JUNCTION     0.50     0.87   107.34     4  05:27        0.87
  N_39700              JUNCTION     0.50     0.86   107.30     4  05:29        0.86
  N_39600              JUNCTION     0.50     0.86   107.27     4  05:31        0.86
  N_39500              JUNCTION     0.50     0.86   107.24     4  05:33        0.86
  N_39400              JUNCTION     0.50     0.87   107.22     4  05:34        0.87
  N_39300              JUNCTION     0.50     0.86   107.18     4  05:37        0.86
  N_39200              JUNCTION     0.50     0.87   107.16     4  05:37        0.87
  N_39100              JUNCTION     0.50     0.86   107.12     4  05:40        0.86
  N_39000              JUNCTION     0.49     0.85   107.08     4  05:43        0.85
  N_38900              JUNCTION     0.49     0.85   107.05     4  05:45        0.85
  N_38800              JUNCTION     0.49     0.84   107.01     4  05:47        0.84
  N_38700              JUNCTION     0.49     0.84   106.98     4  05:49        0.84
  N_38600              JUNCTION     0.48     0.84   106.95     4  05:52        0.84
  N_38500              JUNCTION     0.47     0.83   106.91     4  05:55        0.83
  N_38400              JUNCTION     0.47     0.83   106.88     4  05:57        0.83
  N_38300              JUNCTION     0.48     0.84   106.86     4  05:59        0.84
  N_38200              JUNCTION     0.49     0.85   106.84     4  06:01        0.85
  N_38100              JUNCTION     0.49     0.86   106.82     4  06:02        0.86
  N_38000              JUNCTION     0.49     0.86   106.79     4  06:04        0.86
  N_37900              JUNCTION     0.49     0.86   106.76     4  06:06        0.86
  N_37800              JUNCTION     0.50     0.87   106.74     4  06:08        0.87
  N_TROLLGG            JUNCTION     0.50     0.88   106.72     4  06:09        0.88
  N_37600              JUNCTION     0.50     0.88   106.69     4  06:11        0.88
  N_37500              JUNCTION     0.51     0.89   106.67     4  06:13        0.89
  N_37400              JUNCTION     0.51     0.89   106.64     4  06:14        0.89
  N_37300              JUNCTION     0.51     0.89   106.61     4  06:17        0.89
  N_37200              JUNCTION     0.51     0.89   106.58     4  06:18        0.89
  N_37100              JUNCTION     0.52     0.91   106.57     4  06:19        0.91
  N_37000              JUNCTION     0.53     0.92   106.55     4  06:20        0.92
  N_36900              JUNCTION     0.54     0.93   106.53     4  06:21        0.93
  N_36800              JUNCTION     0.55     0.95   106.52     4  06:22        0.95
  N_36700              JUNCTION     0.55     0.96   106.50     4  06:23        0.96
  N_36600              JUNCTION     0.56     0.97   106.48     4  06:24        0.97
  N_36500              JUNCTION     0.57     0.98   106.46     4  06:25        0.98
  N_36400              JUNCTION     0.58     0.99   106.44     4  06:26        0.99
  N_36300              JUNCTION     0.58     0.99   106.41     4  06:26        0.99
  N_36200              JUNCTION     0.57     0.97   106.36     4  06:29        0.97
  N_36100              JUNCTION     0.54     0.94   106.30     4  06:32        0.94
  N_36000              JUNCTION     0.53     0.92   106.25     4  06:34        0.92
  N_35900              JUNCTION     0.54     0.93   106.23     4  06:35        0.93
  N_35800              JUNCTION     0.55     0.94   106.21     4  06:36        0.94
  N_35700              JUNCTION     0.56     0.95   106.19     4  06:37        0.95
  N_35600              JUNCTION     0.56     0.95   106.16     4  06:38        0.95
  N_35500              JUNCTION     0.55     0.94   106.12     4  06:40        0.94
  N_35400              JUNCTION     0.50     0.87   106.02     4  06:46        0.87
  N_35300              JUNCTION     0.49     0.85   105.97     4  06:49        0.85
  N_35200              JUNCTION     0.50     0.86   105.95     4  06:50        0.86
  N_35100              JUNCTION     0.51     0.88   105.94     4  06:51        0.88
  N_35000              JUNCTION     0.51     0.89   105.92     4  06:52        0.89
  N_34900              JUNCTION     0.52     0.90   105.90     4  06:53        0.89
  N_34800              JUNCTION     0.53     0.91   105.88     4  06:54        0.91
  N_34700              JUNCTION     0.54     0.92   105.86     4  06:55        0.92
  N_34600              JUNCTION     0.55     0.93   105.84     4  06:56        0.93
  N_34500              JUNCTION     0.54     0.92   105.80     4  06:58        0.92
  N_34400              JUNCTION     0.50     0.86   105.71     4  07:03        0.86
  N_34300              JUNCTION     0.49     0.85   105.67     4  07:05        0.85
  N_34200              JUNCTION     0.50     0.86   105.65     4  07:07        0.86
  N_34100              JUNCTION     0.49     0.86   105.62     4  07:09        0.86
  N_34000              JUNCTION     0.50     0.86   105.59     4  07:10        0.86
  N_33900              JUNCTION     0.50     0.87   105.57     4  07:12        0.87
  N_33800              JUNCTION     0.50     0.86   105.53     4  07:14        0.86
  N_33700              JUNCTION     0.50     0.87   105.51     4  07:16        0.87
  N_33600              JUNCTION     0.51     0.87   105.48     4  07:17        0.87
  N_33500              JUNCTION     0.51     0.88   105.46     4  07:19        0.88
  N_33400              JUNCTION     0.51     0.88   105.43     4  07:20        0.88
  N_33300              JUNCTION     0.52     0.90   105.42     4  07:21        0.90
  N_33200              JUNCTION     0.53     0.90   105.39     4  07:22        0.90
  N_33100              JUNCTION     0.53     0.90   105.36     4  07:24        0.90
  N_33000              JUNCTION     0.53     0.90   105.33     4  07:25        0.90
  N_32900              JUNCTION     0.51     0.87   105.27     4  07:29        0.87
  N_32800              JUNCTION     0.50     0.85   105.22     4  07:32        0.85
  N_32700              JUNCTION     0.50     0.86   105.20     4  07:34        0.86
  N_32600              JUNCTION     0.50     0.86   105.17     4  07:36        0.86
  N_32500              JUNCTION     0.50     0.86   105.14     4  07:38        0.86
  N_32400              JUNCTION     0.49     0.85   105.10     4  07:40        0.85
  N_32300              JUNCTION     0.49     0.85   105.07     4  07:42        0.85
  N_32200              JUNCTION     0.49     0.85   105.04     4  07:45        0.85
  N_32100              JUNCTION     0.49     0.86   105.02     4  07:47        0.86
  N_32000              JUNCTION     0.49     0.86   104.99     4  07:49        0.86
  N_31900              JUNCTION     0.49     0.86   104.96     4  07:51        0.86
  N_31800              JUNCTION     0.50     0.87   104.94     4  07:52        0.87
  N_31700              JUNCTION     0.51     0.88   104.92     4  07:53        0.88
  N_31600              JUNCTION     0.52     0.90   104.91     4  07:54        0.90
  N_31500              JUNCTION     0.53     0.91   104.89     4  07:55        0.91
  N_31400              JUNCTION     0.54     0.93   104.88     4  07:56        0.93
  N_31300              JUNCTION     0.55     0.94   104.86     4  07:57        0.94
  N_31200              JUNCTION     0.56     0.96   104.85     4  07:57        0.96
  N_31100              JUNCTION     0.57     0.97   104.83     4  07:58        0.97
  N_31000              JUNCTION     0.57     0.97   104.80     4  07:59        0.97
  N_30900              JUNCTION     0.57     0.97   104.77     4  08:00        0.97
  N_30800              JUNCTION     0.57     0.96   104.73     4  08:02        0.96
  N_30700              JUNCTION     0.55     0.93   104.67     4  08:04        0.93
  N_30600              JUNCTION     0.53     0.90   104.61     4  08:08        0.90
  N_30500              JUNCTION     0.49     0.85   104.53     4  08:13        0.85
  N_30400              JUNCTION     0.48     0.82   104.47     4  08:17        0.82
  N_30300              JUNCTION     0.47     0.82   104.44     4  08:20        0.82
  N_30200              JUNCTION     0.47     0.82   104.41     4  08:22        0.82
  N_30100              JUNCTION     0.48     0.83   104.39     4  08:24        0.83
  N_30000              JUNCTION     0.49     0.85   104.38     4  08:25        0.85
  N_29900              JUNCTION     0.50     0.86   104.36     4  08:26        0.86
  N_29800              JUNCTION     0.51     0.88   104.35     4  08:27        0.88
  N_29700              JUNCTION     0.52     0.89   104.33     4  08:28        0.89
  N_29600              JUNCTION     0.53     0.91   104.32     4  08:29        0.91
  N_29500              JUNCTION     0.54     0.92   104.30     4  08:29        0.92
  N_29400              JUNCTION     0.56     0.95   104.30     4  08:29        0.95
  N_29300              JUNCTION     0.57     0.95   104.27     4  08:30        0.95
  N_29200              JUNCTION     0.54     0.92   104.21     4  08:33        0.92
  N_29100              JUNCTION     0.54     0.91   104.17     4  08:35        0.91
  N_29000              JUNCTION     0.53     0.90   104.13     4  08:37        0.90
  N_28900              JUNCTION     0.52     0.89   104.09     4  08:39        0.89
  N_28800              JUNCTION     0.52     0.89   104.06     4  08:41        0.89
  N_28700              JUNCTION     0.53     0.90   104.04     4  08:42        0.90
  N_28600              JUNCTION     0.53     0.90   104.01     4  08:43        0.90
  N_28500              JUNCTION     0.52     0.88   103.96     4  08:46        0.88
  N_28400              JUNCTION     0.52     0.88   103.93     4  08:48        0.88
  N_28300              JUNCTION     0.51     0.86   103.88     4  08:51        0.86
  N_28200              JUNCTION     0.49     0.83   103.82     4  08:55        0.83
  N_28100              JUNCTION     0.47     0.81   103.77     4  09:01        0.81
  N_28000              JUNCTION     0.46     0.80   103.73     4  09:04        0.80
  N_27900              JUNCTION     0.47     0.80   103.70     4  09:07        0.80
  N_27800              JUNCTION     0.46     0.80   103.67     4  09:10        0.80
  N_27700              JUNCTION     0.45     0.79   103.63     4  09:15        0.79
  N_27600              JUNCTION     0.45     0.79   103.60     4  09:18        0.79
  N_27500              JUNCTION     0.46     0.80   103.58     4  09:20        0.80
  N_27400              JUNCTION     0.47     0.82   103.57     4  09:22        0.82
  N_27300              JUNCTION     0.48     0.83   103.55     4  09:23        0.83
  N_UTLEY              JUNCTION     0.49     0.84   103.53     4  09:25        0.84
  N_27100              JUNCTION     0.49     0.85   103.51     4  09:27        0.85
  N_27000              JUNCTION     0.50     0.87   103.50     4  09:28        0.87
  N_26900              JUNCTION     0.52     0.89   103.49     4  09:29        0.89
  N_26800              JUNCTION     0.53     0.90   103.47     4  09:30        0.90
  N_26700              JUNCTION     0.53     0.91   103.45     4  09:31        0.91
  N_26600              JUNCTION     0.53     0.91   103.42     4  09:34        0.91
  N_26500              JUNCTION     0.53     0.91   103.39     4  09:35        0.91
  N_26400              JUNCTION     0.54     0.91   103.36     4  09:37        0.91
  N_26300              JUNCTION     0.53     0.91   103.33     4  09:40        0.91
  N_26200              JUNCTION     0.52     0.90   103.29     4  09:43        0.90
  N_26100              JUNCTION     0.53     0.90   103.26     4  09:46        0.90
  N_26000              JUNCTION     0.53     0.91   103.24     4  09:47        0.91
  N_25900              JUNCTION     0.54     0.92   103.22     4  09:49        0.92
  N_25800              JUNCTION     0.54     0.92   103.19     4  09:51        0.92
  N_25700              JUNCTION     0.54     0.92   103.16     4  09:54        0.92
  N_25600              JUNCTION     0.53     0.91   103.12     4  09:57        0.91
  N_25500              JUNCTION     0.53     0.91   103.09     4  10:00        0.91
  N_25400              JUNCTION     0.52     0.90   103.05     4  10:03        0.90
  N_25300              JUNCTION     0.52     0.91   103.03     4  10:05        0.91
  N_25200              JUNCTION     0.53     0.91   103.00     4  10:07        0.91
  N_25100              JUNCTION     0.53     0.92   102.98     4  10:09        0.92
  N_25000              JUNCTION     0.54     0.94   102.97     4  10:10        0.94
  N_24900              JUNCTION     0.55     0.95   102.95     4  10:11        0.95
  N_24800              JUNCTION     0.56     0.96   102.93     4  10:13        0.96
  N_24700              JUNCTION     0.57     0.98   102.92     4  10:14        0.98
  N_24600              JUNCTION     0.57     0.99   102.90     4  10:15        0.99
  N_24500              JUNCTION     0.58     0.99   102.87     4  10:17        0.99
  N_24400              JUNCTION     0.59     1.01   102.86     4  10:18        1.01
  N_24300              JUNCTION     0.60     1.02   102.84     4  10:19        1.02
  N_24200              JUNCTION     0.61     1.04   102.83     4  10:19        1.04
  N_24100              JUNCTION     0.63     1.06   102.82     4  10:20        1.06
  N_24000              JUNCTION     0.63     1.06   102.79     4  10:21        1.06
  N_23900              JUNCTION     0.62     1.06   102.76     4  10:22        1.06
  N_23800              JUNCTION     0.60     1.02   102.69     4  10:26        1.02
  N_23700              JUNCTION     0.60     1.02   102.66     4  10:27        1.02
  N_23600              JUNCTION     0.61     1.04   102.65     4  10:27        1.04
  N_23500              JUNCTION     0.63     1.06   102.64     4  10:28        1.06
  N_23400              JUNCTION     0.63     1.07   102.62     4  10:29        1.07
  N_23300              JUNCTION     0.64     1.08   102.60     4  10:29        1.08
  N_23200              JUNCTION     0.65     1.08   102.57     4  10:30        1.08
  N_23100              JUNCTION     0.65     1.09   102.55     4  10:31        1.09
  N_23000              JUNCTION     0.64     1.07   102.50     4  10:32        1.07
  N_22900              JUNCTION     0.60     1.02   102.42     4  10:36        1.02
  N_22800              JUNCTION     0.60     1.01   102.38     4  10:37        1.01
  N_22700              JUNCTION     0.60     1.01   102.35     4  10:38        1.01
  N_22600              JUNCTION     0.61     1.02   102.33     4  10:39        1.02
  N_22500              JUNCTION     0.60     1.01   102.29     4  10:41        1.01
  N_22400              JUNCTION     0.60     1.01   102.26     4  10:42        1.01
  N_22300              JUNCTION     0.61     1.02   102.24     4  10:43        1.02
  N_22200              JUNCTION     0.60     1.01   102.20     4  10:44        1.01
  N_22100              JUNCTION     0.59     0.99   102.15     4  10:46        0.99
  N_22000              JUNCTION     0.57     0.96   102.09     4  10:48        0.96
  N_21900              JUNCTION     0.56     0.94   102.04     4  10:50        0.94
  N_21800              JUNCTION     0.55     0.93   102.00     4  10:52        0.93
  N_21700              JUNCTION     0.54     0.91   101.95     4  10:54        0.91
  N_21600              JUNCTION     0.53     0.89   101.90     4  10:57        0.89
  N_21500              JUNCTION     0.51     0.87   101.85     4  11:01        0.87
  N_21400              JUNCTION     0.51     0.87   101.82     4  11:03        0.87
  N_21300              JUNCTION     0.51     0.87   101.79     4  11:05        0.87
  N_21200              JUNCTION     0.51     0.86   101.75     4  11:08        0.86
  N_21100              JUNCTION     0.50     0.86   101.72     4  11:10        0.86
  N_21000              JUNCTION     0.50     0.86   101.69     4  11:12        0.86
  N_20900              JUNCTION     0.51     0.86   101.66     4  11:14        0.86
  N_20800              JUNCTION     0.51     0.87   101.64     4  11:16        0.87
  N_20700              JUNCTION     0.52     0.88   101.62     4  11:17        0.88
  N_20600              JUNCTION     0.52     0.89   101.60     4  11:19        0.89
  N_20500              JUNCTION     0.53     0.91   101.59     4  11:19        0.91
  N_20400              JUNCTION     0.54     0.92   101.57     4  11:20        0.92
  N_20300              JUNCTION     0.55     0.93   101.55     4  11:21        0.93
  N_20200              JUNCTION     0.57     0.95   101.54     4  11:22        0.95
  N_20100              JUNCTION     0.58     0.96   101.52     4  11:23        0.96
  N_20000              JUNCTION     0.57     0.95   101.48     4  11:25        0.95
  N_19900              JUNCTION     0.55     0.92   101.42     4  11:28        0.92
  N_19800              JUNCTION     0.53     0.89   101.36     4  11:33        0.89
  N_19700              JUNCTION     0.51     0.87   101.31     4  11:37        0.87
  N_19600              JUNCTION     0.50     0.85   101.26     4  11:40        0.85
  N_19500              JUNCTION     0.50     0.85   101.23     4  11:43        0.85
  N_19400              JUNCTION     0.50     0.84   101.19     4  11:47        0.84
  N_19300              JUNCTION     0.49     0.84   101.16     4  11:50        0.84
  N_19200              JUNCTION     0.50     0.85   101.14     4  11:52        0.85
  N_19100              JUNCTION     0.50     0.85   101.11     4  11:55        0.85
  N_19000              JUNCTION     0.50     0.86   101.09     4  11:58        0.86
  N_18900              JUNCTION     0.49     0.85   101.05     4  12:02        0.85
  N_18800              JUNCTION     0.49     0.84   101.01     4  12:06        0.84
  N_18700              JUNCTION     0.50     0.85   100.99     4  12:08        0.85
  N_18600              JUNCTION     0.50     0.86   100.97     4  12:11        0.86
  N_18500              JUNCTION     0.50     0.86   100.94     4  12:14        0.86
  N_18400              JUNCTION     0.50     0.87   100.92     4  12:17        0.87
  N_18300              JUNCTION     0.51     0.88   100.90     4  12:19        0.88
  N_18200              JUNCTION     0.52     0.89   100.88     4  12:20        0.89
  N_18100              JUNCTION     0.52     0.90   100.86     4  12:22        0.90
  N_18000              JUNCTION     0.53     0.92   100.85     4  12:23        0.92
  N_17900              JUNCTION     0.54     0.93   100.83     4  12:25        0.93
  N_17800              JUNCTION     0.56     0.95   100.82     4  12:26        0.95
  N_17700              JUNCTION     0.57     0.97   100.81     4  12:27        0.97
  N_17600              JUNCTION     0.58     0.98   100.79     4  12:28        0.98
  N_17500              JUNCTION     0.58     0.98   100.76     4  12:30        0.98
  N_17400              JUNCTION     0.58     0.98   100.73     4  12:32        0.98
  N_17300              JUNCTION     0.58     0.99   100.71     4  12:34        0.99
  N_17200              JUNCTION     0.59     1.01   100.70     4  12:35        1.01
  N_17100              JUNCTION     0.60     1.01   100.67     4  12:37        1.01
  N_17000              JUNCTION     0.61     1.03   100.66     4  12:38        1.03
  N_16900              JUNCTION     0.62     1.05   100.65     4  12:38        1.05
  N_16800              JUNCTION     0.64     1.07   100.64     4  12:39        1.07
  N_16700              JUNCTION     0.65     1.08   100.62     4  12:39        1.08
  N_16600              JUNCTION     0.65     1.09   100.60     4  12:41        1.09
  N_16500              JUNCTION     0.63     1.06   100.54     4  12:44        1.06
  N_16400              JUNCTION     0.62     1.04   100.49     4  12:47        1.04
  N_16300              JUNCTION     0.61     1.03   100.45     4  12:49        1.03
  N_16200              JUNCTION     0.60     1.02   100.41     4  12:52        1.02
  N_16100              JUNCTION     0.61     1.03   100.39     4  12:54        1.02
  N_16000              JUNCTION     0.63     1.05   100.38     4  12:54        1.05
  N_15900              JUNCTION     0.64     1.07   100.37     4  12:55        1.07
  N_15800              JUNCTION     0.61     1.02   100.29     4  13:01        1.02
  N_15700              JUNCTION     0.58     0.98   100.22     4  13:07        0.98
  N_15600              JUNCTION     0.56     0.95   100.16     4  13:11        0.95
  N_15500              JUNCTION     0.55     0.94   100.12     4  13:15        0.94
  N_15400              JUNCTION     0.55     0.94   100.09     4  13:18        0.94
  N_15300              JUNCTION     0.55     0.95   100.07     4  13:20        0.95
  N_15200              JUNCTION     0.56     0.96   100.05     4  13:21        0.96
  N_15100              JUNCTION     0.57     0.98   100.04     4  13:22        0.98
  N_15000              JUNCTION     0.58     0.99   100.02     4  13:23        0.99
  N_14900              JUNCTION     0.59     1.01   100.01     4  13:25        1.01
  N_14800              JUNCTION     0.60     1.02    99.99     4  13:26        1.02
  N_14700              JUNCTION     0.61     1.04    99.98     4  13:27        1.04
  N_14600              JUNCTION     0.62     1.06    99.97     4  13:28        1.06
  N_14500              JUNCTION     0.64     1.07    99.95     4  13:28        1.07
  N_14400              JUNCTION     0.65     1.09    99.94     4  13:29        1.09
  N_14300              JUNCTION     0.66     1.11    99.93     4  13:30        1.11
  N_14200              JUNCTION     0.67     1.12    99.91     4  13:31        1.12
  N_14100              JUNCTION     0.68     1.14    99.90     4  13:31        1.14
  N_14000              JUNCTION     0.69     1.15    99.88     4  13:32        1.15
  N_13900              JUNCTION     0.69     1.14    99.84     4  13:34        1.14
  N_13800              JUNCTION     0.68     1.13    99.80     4  13:35        1.13
  N_13700              JUNCTION     0.68     1.13    99.77     4  13:36        1.13
  N_13600              JUNCTION     0.65     1.09    99.70     4  13:40        1.09
  N_13500              JUNCTION     0.62     1.04    99.62     4  13:44        1.04
  N_13400              JUNCTION     0.62     1.04    99.59     4  13:46        1.04
  N_13300              JUNCTION     0.61     1.03    99.55     4  13:48        1.03
  N_13200              JUNCTION     0.61     1.03    99.52     4  13:50        1.03
  N_13100              JUNCTION     0.62     1.04    99.50     4  13:51        1.04
  N_13000              JUNCTION     0.63     1.06    99.49     4  13:53        1.06
  N_12900              JUNCTION     0.63     1.06    99.46     4  13:54        1.06
  N_12800              JUNCTION     0.60     1.03    99.40     4  13:58        1.03
  N_12700              JUNCTION     0.61     1.03    99.37     4  13:59        1.03
  N_12600              JUNCTION     0.62     1.05    99.36     4  14:00        1.05
  N_12500              JUNCTION     0.63     1.07    99.35     4  14:01        1.07
  N_12400              JUNCTION     0.64     1.08    99.33     4  14:01        1.08
  N_12300              JUNCTION     0.66     1.11    99.33     4  14:02        1.11
  N_12200              JUNCTION     0.68     1.13    99.32     4  14:02        1.13
  N_12100              JUNCTION     0.69     1.15    99.31     4  14:02        1.15
  N_12000              JUNCTION     0.70     1.16    99.29     4  14:03        1.16
  N_11900              JUNCTION     0.69     1.15    99.25     4  14:04        1.15
  N_11800              JUNCTION     0.69     1.15    99.22     4  14:04        1.15
  N_11700              JUNCTION     0.69     1.14    99.18     4  14:05        1.14
  N_11600              JUNCTION     0.67     1.11    99.12     4  14:06        1.11
  N_11500              JUNCTION     0.67     1.10    99.08     4  14:07        1.10
  N_11400              JUNCTION     0.66     1.10    99.05     4  14:08        1.10
  N_11300              JUNCTION     0.66     1.09    99.01     4  14:09        1.09
  N_11200              JUNCTION     0.66     1.08    98.97     4  14:10        1.08
  N_11100              JUNCTION     0.66     1.08    98.94     4  14:11        1.08
  N_11000              JUNCTION     0.65     1.07    98.90     4  14:12        1.07
  N_10900              JUNCTION     0.64     1.05    98.85     4  14:14        1.05
  N_10800              JUNCTION     0.61     1.01    98.78     4  14:16        1.01
  N_10700              JUNCTION     0.57     0.95    98.69     4  14:19        0.95
  N_10600              JUNCTION     0.57     0.96    98.67     4  14:20        0.96
  N_10500              JUNCTION     0.58     0.96    98.64     4  14:21        0.96
  N_10400              JUNCTION     0.57     0.95    98.60     4  14:23        0.95
  N_10300              JUNCTION     0.57     0.94    98.56     4  14:24        0.94
  N_10200              JUNCTION     0.57     0.94    98.53     4  14:25        0.94
  N_10100              JUNCTION     0.56     0.93    98.49     4  14:27        0.93
  N_10000              JUNCTION     0.55     0.91    98.44     4  14:28        0.91
  N_9900               JUNCTION     0.55     0.91    98.41     4  14:30        0.91
  N_9800               JUNCTION     0.55     0.92    98.39     4  14:31        0.92
  N_9700               JUNCTION     0.55     0.91    98.35     4  14:33        0.91
  N_9600               JUNCTION     0.53     0.88    98.29     4  14:36        0.88
  N_9500               JUNCTION     0.52     0.87    98.25     4  14:38        0.87
  N_9400               JUNCTION     0.52     0.86    98.21     4  14:40        0.86
  N_9300               JUNCTION     0.51     0.86    98.18     4  14:42        0.86
  N_9200               JUNCTION     0.51     0.86    98.15     4  14:44        0.86
  N_9100               JUNCTION     0.51     0.85    98.11     4  14:46        0.85
  N_9000               JUNCTION     0.50     0.85    98.08     4  14:48        0.85
  N_8900               JUNCTION     0.50     0.85    98.05     4  14:49        0.85
  N_8800               JUNCTION     0.51     0.86    98.03     4  14:50        0.86
  N_8700               JUNCTION     0.52     0.87    98.01     4  14:51        0.87
  N_8600               JUNCTION     0.52     0.88    97.99     4  14:52        0.88
  N_8500               JUNCTION     0.52     0.87    97.95     4  14:54        0.87
  N_8400               JUNCTION     0.53     0.88    97.93     4  14:55        0.88
  N_8300               JUNCTION     0.53     0.89    97.91     4  14:56        0.89
  N_8200               JUNCTION     0.54     0.89    97.88     4  14:57        0.89
  N_8100               JUNCTION     0.54     0.90    97.86     4  14:58        0.90
  N_8000               JUNCTION     0.55     0.90    97.83     4  14:59        0.90
  N_7900               JUNCTION     0.55     0.90    97.80     4  15:00        0.90
  N_7800               JUNCTION     0.54     0.89    97.76     4  15:02        0.89
  N_7700               JUNCTION     0.53     0.87    97.71     4  15:04        0.87
  N_7600               JUNCTION     0.51     0.84    97.65     4  15:07        0.84
  N_7500               JUNCTION     0.50     0.82    97.60     4  15:09        0.82
  N_7400               JUNCTION     0.49     0.81    97.56     4  15:12        0.81
  N_7300               JUNCTION     0.47     0.79    97.51     4  15:15        0.79
  N_7200               JUNCTION     0.47     0.79    97.48     4  15:17        0.79
  N_7100               JUNCTION     0.47     0.79    97.45     4  15:19        0.79
  N_7000               JUNCTION     0.47     0.79    97.42     4  15:20        0.79
  N_6900               JUNCTION     0.48     0.80    97.40     4  15:22        0.80
  N_6800               JUNCTION     0.48     0.80    97.37     4  15:24        0.80
  N_6700               JUNCTION     0.48     0.80    97.34     4  15:26        0.80
  N_6600               JUNCTION     0.48     0.81    97.32     4  15:27        0.81
  N_6500               JUNCTION     0.48     0.80    97.28     4  15:29        0.80
  N_6400               JUNCTION     0.48     0.80    97.25     4  15:32        0.80
  N_6300               JUNCTION     0.48     0.80    97.22     4  15:34        0.80
  N_6200               JUNCTION     0.48     0.80    97.19     4  15:35        0.80
  N_6100               JUNCTION     0.48     0.80    97.16     4  15:37        0.80
  N_6000               JUNCTION     0.48     0.80    97.13     4  15:39        0.80
  N_5900               JUNCTION     0.48     0.80    97.10     4  15:41        0.80
  N_5800               JUNCTION     0.48     0.81    97.08     4  15:43        0.81
  N_5700               JUNCTION     0.48     0.81    97.05     4  15:44        0.81
  N_5600               JUNCTION     0.49     0.81    97.02     4  15:46        0.81
  N_5500               JUNCTION     0.49     0.82    97.00     4  15:48        0.82
  N_5400               JUNCTION     0.49     0.81    96.96     4  15:50        0.81
  N_5300               JUNCTION     0.49     0.81    96.93     4  15:52        0.81
  N_5200               JUNCTION     0.49     0.82    96.91     4  15:54        0.82
  N_5100               JUNCTION     0.49     0.82    96.88     4  15:56        0.82
  N_5000               JUNCTION     0.49     0.82    96.85     4  15:59        0.82
  N_4900               JUNCTION     0.48     0.81    96.81     4  16:01        0.81
  N_4800               JUNCTION     0.48     0.81    96.78     4  16:03        0.81
  N_4700               JUNCTION     0.48     0.81    96.75     4  16:05        0.81
  N_4600               JUNCTION     0.49     0.82    96.73     4  16:07        0.82
  N_4500               JUNCTION     0.49     0.83    96.71     4  16:08        0.83
  N_4400               JUNCTION     0.50     0.84    96.69     4  16:09        0.84
  N_4300               JUNCTION     0.51     0.85    96.67     4  16:10        0.85
  N_4200               JUNCTION     0.52     0.87    96.66     4  16:11        0.87
  N_4100               JUNCTION     0.53     0.88    96.64     4  16:12        0.88
  N_4000               JUNCTION     0.53     0.88    96.61     4  16:13        0.88
  N_3900               JUNCTION     0.53     0.87    96.57     4  16:15        0.87
  N_3800               JUNCTION     0.53     0.88    96.55     4  16:16        0.88
  N_3700               JUNCTION     0.54     0.89    96.53     4  16:17        0.89
  N_3600               JUNCTION     0.55     0.90    96.51     4  16:18        0.90
  N_3500               JUNCTION     0.53     0.88    96.46     4  16:20        0.88
  N_3400               JUNCTION     0.50     0.83    96.38     4  16:24        0.83
  N_3300               JUNCTION     0.49     0.82    96.34     4  16:27        0.82
  N_3200               JUNCTION     0.49     0.82    96.31     4  16:28        0.82
  N_3100               JUNCTION     0.49     0.81    96.27     4  16:32        0.81
  N_3000               JUNCTION     0.47     0.79    96.22     4  16:36        0.79
  N_BASTROP            JUNCTION     0.47     0.78    96.18     4  16:38        0.78
  N_2800               JUNCTION     0.47     0.79    96.16     4  16:41        0.79
  N_2700               JUNCTION     0.47     0.79    96.13     4  16:43        0.79
  N_2600               JUNCTION     0.47     0.80    96.11     4  16:45        0.80
  N_2500               JUNCTION     0.48     0.80    96.08     4  16:46        0.80
  N_2400               JUNCTION     0.49     0.81    96.06     4  16:48        0.81
  N_2300               JUNCTION     0.49     0.83    96.05     4  16:49        0.83
  N_2200               JUNCTION     0.50     0.84    96.03     4  16:50        0.84
  N_2100               JUNCTION     0.51     0.84    96.00     4  16:52        0.84
  N_2000               JUNCTION     0.50     0.84    95.97     4  16:54        0.84
  N_1900               JUNCTION     0.49     0.82    95.92     4  16:57        0.82
  N_1800               JUNCTION     0.49     0.82    95.89     4  16:59        0.82
  N_1700               JUNCTION     0.49     0.83    95.87     4  17:00        0.83
  N_1600               JUNCTION     0.51     0.84    95.85     4  17:01        0.84
  N_1500               JUNCTION     0.52     0.87    95.85     4  17:02        0.87
  N_1400               JUNCTION     0.53     0.88    95.83     4  17:02        0.88
  N_1300               JUNCTION     0.52     0.86    95.78     4  17:04        0.86
  N_1200               JUNCTION     0.51     0.85    95.74     4  17:06        0.85
  N_1100               JUNCTION     0.52     0.86    95.72     4  17:07        0.86
  N_1000               JUNCTION     0.52     0.86    95.69     4  17:08        0.86
[...]
  L_22850                 1.00   0.00  0.00  0.00  0.73  0.00  0.00  0.00  0.00  0.00
  L_22750                 1.00   0.00  0.00  0.00  0.73  0.00  0.00  0.00  0.00  0.00
  L_22650                 1.00   0.00  0.00  0.00  0.73  0.00  0.00  0.00  0.00  0.00
  L_22550                 1.00   0.00  0.00  0.00  0.73  0.00  0.00  0.00  0.00  0.00
  L_22450                 1.00   0.00  0.00  0.00  0.73  0.00  0.00  0.00  0.00  0.00
  L_22350                 1.00   0.00  0.00  0.00  0.73  0.00  0.00  0.00  0.00  0.00
  L_22250                 1.00   0.00  0.00  0.00  0.73  0.00  0.00  0.00  0.00  0.00
  L_22150                 1.00   0.00  0.00  0.00  0.73  0.00  0.00  0.00  0.00  0.00
  L_22050                 1.00   0.00  0.00  0.00  0.73  0.00  0.00  0.00  0.00  0.00
  L_21950                 1.00   0.00  0.00  0.00  0.73  0.00  0.00  0.00  0.00  0.00
  L_21850                 1.00   0.00  0.00  0.00  0.73  0.00  0.00  0.00  0.00  0.00
  L_21750                 1.00   0.00  0.00  0.00  0.73  0.00  0.00  0.00  0.00  0.00
  L_21650                 1.00   0.00  0.00  0.00  0.73  0.00  0.00  0.00  0.00  0.00
  L_21550                 1.00   0.00  0.00  0.00  0.73  0.00  0.00  0.00  0.00  0.00
  L_21450                 1.00   0.00  0.00  0.00  0.73  0.00  0.00  0.00  0.00  0.00
  L_21350                 1.00   0.00  0.00  0.00  0.73  0.00  0.00  0.00  0.00  0.00
  L_21250                 1.00   0.00  0.00  0.00  0.73  0.00  0.00  0.00  0.00  0.00
  L_21150                 1.00   0.00  0.00  0.00  0.73  0.00  0.00  0.00  0.00  0.00
  L_21050                 1.00   0.00  0.00  0.00  0.73  0.00  0.00  0.00  0.00  0.00
  L_20950                 1.00   0.00  0.00  0.00  0.73  0.00  0.00  0.00  0.00  0.00
  L_20850                 1.00   0.00  0.00  0.00  0.73  0.00  0.00  0.00  0.00  0.00
  L_20750                 1.00   0.00  0.00  0.00  0.73  0.00  0.00  0.00  0.00  0.00
  L_20650                 1.00   0.00  0.00  0.00  0.73  0.00  0.00  0.00  0.00  0.00
  L_20550                 1.00   0.00  0.00  0.00  0.73  0.00  0.00  0.00  0.00  0.00
  L_20450                 1.00   0.00  0.00  0.00  0.73  0.00  0.00  0.00  0.00  0.00
  L_20350                 1.00   0.00  0.00  0.00  0.73  0.00  0.00  0.00  0.00  0.00
  L_20250                 1.00   0.00  0.00  0.00  0.73  0.00  0.00  0.00  0.00  0.00
  L_20150                 1.00   0.00  0.00  0.00  0.73  0.00  0.00  0.00  0.00  0.00
  L_20050                 1.00   0.00  0.00  0.00  0.73  0.00  0.00  0.00  0.00  0.00
  L_19950                 1.00   0.00  0.00  0.00  0.73  0.00  0.00  0.00  0.00  0.00
  L_19850                 1.00   0.00  0.00  0.00  0.73  0.00  0.00  0.00  0.00  0.00
  L_19750                 1.00   0.00  0.00  0.00  0.73  0.00  0.00  0.00  0.00  0.00
  L_19650                 1.00   0.00  0.00  0.00  0.73  0.00  0.00  0.00  0.00  0.00
  L_19550                 1.00   0.00  0.00  0.00  0.73  0.00  0.00  0.00  0.00  0.00
  L_19450                 1.00   0.00  0.00  0.00  0.73  0.00  0.00  0.00  0.00  0.00
  L_19350                 1.00   0.00  0.00  0.00  0.73  0.00  0.00  0.00  0.00  0.00
  L_19250                 1.00   0.00  0.00  0.00  0.73  0.00  0.00  0.00  0.00  0.00
  L_19150                 1.00   0.00  0.00  0.00  0.73  0.00  0.00  0.00  0.00  0.00
  L_19050                 1.00   0.00  0.00  0.00  0.73  0.00  0.00  0.00  0.00  0.00
  L_18950                 1.00   0.00  0.00  0.00  0.73  0.00  0.00  0.00  0.00  0.00
  L_18850                 1.00   0.00  0.00  0.00  0.73  0.00  0.00  0.00  0.00  0.00
  L_18750                 1.00   0.00  0.00  0.00  0.73  0.00  0.00  0.00  0.00  0.00
  L_18650                 1.00   0.00  0.00  0.00  0.73  0.00  0.00  0.00  0.00  0.00
  L_18550                 1.00   0.00  0.00  0.00  0.73  0.00  0.00  0.00  0.00  0.00
  L_18450                 1.00   0.00  0.00  0.00  0.73  0.00  0.00  0.00  0.00  0.00
  L_18350                 1.00   0.00  0.00  0.00  0.73  0.00  0.00  0.00  0.00  0.00
  L_18250                 1.00   0.00  0.00  0.00  0.73  0.00  0.00  0.00  0.00  0.00
  L_18150                 1.00   0.00  0.00  0.00  0.73  0.00  0.00  0.00  0.00  0.00
  L_18050                 1.00   0.00  0.00  0.00  0.73  0.00  0.00  0.00  0.00  0.00
  L_17950                 1.00   0.00  0.00  0.00  0.73  0.00  0.00  0.00  0.00  0.00
  L_17850                 1.00   0.00  0.00  0.00  0.73  0.00  0.00  0.00  0.00  0.00
  L_17750                 1.00   0.00  0.00  0.00  0.73  0.00  0.00  0.00  0.00  0.00
  L_17650                 1.00   0.00  0.00  0.00  0.73  0.00  0.00  0.00  0.00  0.00
  L_17550                 1.00   0.00  0.00  0.00  0.73  0.00  0.00  0.00  0.00  0.00
  L_17450                 1.00   0.00  0.00  0.00  0.73  0.00  0.00  0.00  0.00  0.00
  L_17350                 1.00   0.00  0.00  0.00  0.73  0.00  0.00  0.00  0.00  0.00
  L_17250                 1.00   0.00  0.00  0.00  0.73  0.00  0.00  0.00  0.00  0.00
  L_17150                 1.00   0.00  0.00  0.00  0.73  0.00  0.00  0.00  0.00  0.00
  L_17050                 1.00   0.00  0.00  0.00  0.73  0.00  0.00  0.00  0.00  0.00
  L_16950                 1.00   0.00  0.00  0.00  0.73  0.00  0.00  0.00  0.00  0.00
  L_16850                 1.00   0.00  0.00  0.00  0.73  0.00  0.00  0.00  0.00  0.00
  L_16750                 1.00   0.00  0.00  0.00  0.73  0.00  0.00  0.00  0.00  0.00
  L_16650                 1.00   0.00  0.00  0.00  0.73  0.00  0.00  0.00  0.00  0.00
  L_16550                 1.00   0.00  0.00  0.00  0.73  0.00  0.00  0.00  0.00  0.00
  L_16450                 1.00   0.00  0.00  0.00  0.73  0.00  0.00  0.00  0.00  0.00
  L_16350                 1.00   0.00  0.00  0.00  0.73  0.00  0.00  0.00  0.00  0.00
  L_16250                 1.00   0.00  0.00  0.00  0.73  0.00  0.00  0.00  0.00  0.00
  L_16150                 1.00   0.00  0.00  0.00  0.73  0.00  0.00  0.00  0.00  0.00
  L_16050                 1.00   0.00  0.00  0.00  0.73  0.00  0.00  0.00  0.00  0.00
  L_15950                 1.00   0.00  0.00  0.00  0.73  0.00  0.00  0.00  0.00  0.00
  L_15850                 1.00   0.00  0.00  0.00  0.73  0.00  0.00  0.00  0.00  0.00
  L_15750                 1.00   0.00  0.00  0.00  0.73  0.00  0.00  0.00  0.00  0.00
  L_15650                 1.00   0.00  0.00  0.00  0.73  0.00  0.00  0.00  0.00  0.00
  L_15550                 1.00   0.00  0.00  0.00  0.73  0.00  0.00  0.00  0.00  0.00
  L_15450                 1.00   0.00  0.00  0.00  0.73  0.00  0.00  0.00  0.00  0.00
  L_15350                 1.00   0.00  0.00  0.00  0.73  0.00  0.00  0.00  0.00  0.00
  L_15250                 1.00   0.00  0.00  0.00  0.73  0.00  0.00  0.00  0.00  0.00
  L_15150                 1.00   0.00  0.00  0.00  0.73  0.00  0.00  0.00  0.00  0.00
  L_15050                 1.00   0.00  0.00  0.00  0.73  0.00  0.00  0.00  0.00  0.00
  L_14950                 1.00   0.00  0.00  0.00  0.73  0.00  0.00  0.00  0.00  0.00
  L_14850                 1.00   0.00  0.00  0.00  0.73  0.00  0.00  0.00  0.00  0.00
  L_14750                 1.00   0.00  0.00  0.00  0.73  0.00  0.00  0.00  0.00  0.00
  L_14650                 1.00   0.00  0.00  0.00  0.73  0.00  0.00  0.00  0.00  0.00
  L_14550                 1.00   0.00  0.00  0.00  0.73  0.00  0.00  0.00  0.00  0.00
  L_14450                 1.00   0.00  0.00  0.00  0.73  0.00  0.00  0.00  0.00  0.00
  L_14350                 1.00   0.00  0.00  0.00  0.73  0.00  0.00  0.00  0.00  0.00
  L_14250                 1.00   0.00  0.00  0.00  0.73  0.00  0.00  0.00  0.00  0.00
  L_14150                 1.00   0.00  0.00  0.00  0.73  0.00  0.00  0.00  0.00  0.00
  L_14050                 1.00   0.00  0.00  0.00  0.73  0.00  0.00  0.00  0.00  0.00
  L_13950                 1.00   0.00  0.00  0.00  0.73  0.00  0.00  0.00  0.00  0.00
  L_13850                 1.00   0.00  0.00  0.00  0.73  0.00  0.00  0.00  0.00  0.00
  L_13750                 1.00   0.00  0.00  0.00  0.73  0.00  0.00  0.00  0.00  0.00
  L_13650                 1.00   0.00  0.00  0.00  0.73  0.00  0.00  0.00  0.00  0.00
  L_13550                 1.00   0.00  0.00  0.00  0.73  0.00  0.00  0.00  0.00  0.00
  L_13450                 1.00   0.00  0.00  0.00  0.73  0.00  0.00  0.00  0.00  0.00
  L_13350                 1.00   0.00  0.00  0.00  0.73  0.00  0.00  0.00  0.00  0.00
  L_13250                 1.00   0.00  0.00  0.00  0.73  0.00  0.00  0.00  0.00  0.00
  L_13150                 1.00   0.00  0.00  0.00  0.73  0.00  0.00  0.00  0.00  0.00
  L_13050                 1.00   0.00  0.00  0.00  0.73  0.00  0.00  0.00  0.00  0.00
  L_12950                 1.00   0.00  0.00  0.00  0.73  0.00  0.00  0.00  0.00  0.00
  L_12850                 1.00   0.00  0.00  0.00  0.73  0.00  0.00  0.00  0.00  0.00
  L_12750                 1.00   0.00  0.00  0.00  0.73  0.00  0.00  0.00  0.00  0.00
  L_12650                 1.00   0.00  0.00  0.00  0.73  0.00  0.00  0.00  0.00  0.00
  L_12550                 1.00   0.00  0.00  0.00  0.73  0.00  0.00  0.00  0.00  0.00
  L_12450                 1.00   0.00  0.00  0.00  0.73  0.00  0.00  0.00  0.00  0.00
  L_12350                 1.00   0.00  0.00  0.00  0.73  0.00  0.00  0.00  0.00  0.00
  L_12250                 1.00   0.00  0.00  0.00  0.73  0.00  0.00  0.00  0.00  0.00
  L_12150                 1.00   0.00  0.00  0.00  0.73  0.00  0.00  0.00  0.00  0.00
  L_12050                 1.00   0.00  0.00  0.00  0.73  0.00  0.00  0.00  0.00  0.00
  L_11950                 1.00   0.00  0.00  0.00  0.73  0.00  0.00  0.00  0.00  0.00
  L_11850                 1.00   0.00  0.00  0.00  0.73  0.00  0.00  0.00  0.00  0.00
  L_11750                 1.00   0.00  0.00  0.00  0.73  0.00  0.00  0.00  0.00  0.00
  L_11650                 1.00   0.00  0.00  0.00  0.73  0.00  0.00  0.00  0.00  0.00
  L_11550                 1.00   0.00  0.00  0.00  0.73  0.00  0.00  0.00  0.00  0.00
  L_11450                 1.00   0.00  0.00  0.00  0.73  0.00  0.00  0.00  0.00  0.00
  L_11350                 1.00   0.00  0.00  0.00  0.73  0.00  0.00  0.00  0.00  0.00
  L_11250                 1.00   0.00  0.00  0.00  0.73  0.00  0.00  0.00  0.00  0.00
  L_11150                 1.00   0.00  0.00  0.00  0.73  0.00  0.00  0.00  0.00  0.00
  L_11050                 1.00   0.00  0.00  0.00  0.73  0.00  0.00  0.00  0.00  0.00
  L_10950                 1.00   0.00  0.00  0.00  0.73  0.00  0.00  0.00  0.00  0.00
  L_10850                 1.00   0.00  0.00  0.00  0.73  0.00  0.00  0.00  0.00  0.00
  L_10750                 1.00   0.00  0.00  0.00  0.73  0.00  0.00  0.00  0.00  0.00
  L_10650                 1.00   0.00  0.00  0.00  0.73  0.00  0.00  0.00  0.00  0.00
  L_10550                 1.00   0.00  0.00  0.00  0.73  0.00  0.00  0.00  0.00  0.00
  L_10450                 1.00   0.00  0.00  0.00  0.73  0.00  0.00  0.00  0.00  0.00
  L_10350                 1.00   0.00  0.00  0.00  0.73  0.00  0.00  0.00  0.00  0.00
  L_10250                 1.00   0.00  0.00  0.00  0.73  0.00  0.00  0.00  0.00  0.00
  L_10150                 1.00   0.00  0.00  0.00  0.73  0.00  0.00  0.00  0.00  0.00
  L_10050                 1.00   0.00  0.00  0.00  0.73  0.00  0.00  0.00  0.00  0.00
  L_9950                  1.00   0.00  0.00  0.00  0.73  0.00  0.00  0.00  0.00  0.00
  L_9850                  1.00   0.00  0.00  0.00  0.73  0.00  0.00  0.00  0.00  0.00
  L_9750                  1.00   0.00  0.00  0.00  0.73  0.00  0.00  0.00  0.00  0.00
  L_9650                  1.00   0.00  0.00  0.00  0.73  0.00  0.00  0.00  0.00  0.00
  L_9550                  1.00   0.00  0.00  0.00  0.73  0.00  0.00  0.00  0.00  0.00
  L_9450                  1.00   0.00  0.00  0.00  0.73  0.00  0.00  0.00  0.00  0.00
  L_9350                  1.00   0.00  0.00  0.00  0.73  0.00  0.00  0.00  0.00  0.00
  L_9250                  1.00   0.00  0.00  0.00  0.73  0.00  0.00  0.00  0.00  0.00
  L_9150                  1.00   0.00  0.00  0.00  0.73  0.00  0.00  0.00  0.00  0.00
  L_9050                  1.00   0.00  0.00  0.00  0.73  0.00  0.00  0.00  0.00  0.00
  L_8950                  1.00   0.00  0.00  0.00  0.73  0.00  0.00  0.00  0.00  0.00
  L_8850                  1.00   0.00  0.00  0.00  0.73  0.00  0.00  0.00  0.00  0.00
  L_8750                  1.00   0.00  0.00  0.00  0.73  0.00  0.00  0.00  0.00  0.00
  L_8650                  1.00   0.00  0.00  0.00  0.73  0.00  0.00  0.00  0.00  0.00
  L_8550                  1.00   0.00  0.00  0.00  0.73  0.00  0.00  0.00  0.00  0.00
  L_8450                  1.00   0.00  0.00  0.00  0.73  0.00  0.00  0.00  0.00  0.00
  L_8350                  1.00   0.00  0.00  0.00  0.73  0.00  0.00  0.00  0.00  0.00
  L_8250                  1.00   0.00  0.00  0.00  0.73  0.00  0.00  0.00  0.00  0.00
  L_8150                  1.00   0.00  0.00  0.00  0.73  0.00  0.00  0.00  0.00  0.00
  L_8050                  1.00   0.00  0.00  0.00  0.73  0.00  0.00  0.00  0.00  0.00
  L_7950                  1.00   0.00  0.00  0.00  0.73  0.00  0.00  0.00  0.00  0.00
  L_7850                  1.00   0.00  0.00  0.00  0.73  0.00  0.00  0.00  0.00  0.00
  L_7750                  1.00   0.00  0.00  0.00  0.73  0.00  0.00  0.00  0.00  0.00
  L_7650                  1.00   0.00  0.00  0.00  0.73  0.00  0.00  0.00  0.00  0.00
  L_7550                  1.00   0.00  0.00  0.00  0.73  0.00  0.00  0.00  0.00  0.00
  L_7450                  1.00   0.00  0.00  0.00  0.73  0.00  0.00  0.00  0.00  0.00
  L_7350                  1.00   0.00  0.00  0.00  0.73  0.00  0.00  0.00  0.00  0.00
  L_7250                  1.00   0.00  0.00  0.00  0.73  0.00  0.00  0.00  0.00  0.00
  L_7150                  1.00   0.00  0.00  0.00  0.73  0.00  0.00  0.00  0.00  0.00
  L_7050                  1.00   0.00  0.00  0.00  0.73  0.00  0.00  0.00  0.00  0.00
  L_6950                  1.00   0.00  0.00  0.00  0.73  0.00  0.00  0.00  0.00  0.00
  L_6850                  1.00   0.00  0.00  0.00  0.73  0.00  0.00  0.00  0.00  0.00
  L_6750                  1.00   0.00  0.00  0.00  0.73  0.00  0.00  0.00  0.00  0.00
  L_6650                  1.00   0.00  0.00  0.00  0.73  0.00  0.00  0.00  0.00  0.00
  L_6550                  1.00   0.00  0.00  0.00  0.73  0.00  0.00  0.00  0.00  0.00
  L_6450                  1.00   0.00  0.00  0.00  0.73  0.00  0.00  0.00  0.00  0.00
  L_6350                  1.00   0.00  0.00  0.00  0.73  0.00  0.00  0.00  0.00  0.00
  L_6250                  1.00   0.00  0.00  0.00  0.73  0.00  0.00  0.00  0.01  0.00
  L_6150                  1.00   0.00  0.00  0.00  0.73  0.00  0.00  0.00  0.00  0.00
  L_6050                  1.00   0.00  0.00  0.00  0.73  0.00  0.00  0.00  0.00  0.00
  L_5950                  1.00   0.00  0.00  0.00  0.73  0.00  0.00  0.00  0.00  0.00
  L_5850                  1.00   0.00  0.00  0.00  0.73  0.00  0.00  0.00  0.00  0.00
  L_5750                  1.00   0.00  0.00  0.00  0.73  0.00  0.00  0.00  0.00  0.00
  L_5650                  1.00   0.00  0.00  0.00  0.73  0.00  0.00  0.00  0.00  0.00
  L_5550                  1.00   0.00  0.00  0.00  0.73  0.00  0.00  0.00  0.00  0.00
  L_5450                  1.00   0.00  0.00  0.00  0.73  0.00  0.00  0.00  0.00  0.00
  L_5350                  1.00   0.00  0.00  0.00  0.73  0.00  0.00  0.00  0.00  0.00
  L_5250                  1.00   0.00  0.00  0.00  0.73  0.00  0.00  0.00  0.00  0.00
  L_5150                  1.00   0.00  0.00  0.00  0.73  0.00  0.00  0.00  0.00  0.00
  L_5050                  1.00   0.00  0.00  0.00  0.73  0.00  0.00  0.00  0.00  0.00
  L_4950                  1.00   0.00  0.00  0.00  0.73  0.00  0.00  0.00  0.00  0.00
  L_4850                  1.00   0.00  0.00  0.00  0.73  0.00  0.00  0.00  0.00  0.00
  L_4750                  1.00   0.00  0.00  0.00  0.73  0.00  0.00  0.00  0.00  0.00
  L_4650                  1.00   0.00  0.00  0.00  0.73  0.00  0.00  0.00  0.00  0.00
  L_4550                  1.00   0.00  0.00  0.00  0.73  0.00  0.00  0.00  0.00  0.00
  L_4450                  1.00   0.00  0.00  0.00  0.73  0.00  0.00  0.00  0.00  0.00
  L_4350                  1.00   0.00  0.00  0.00  0.73  0.00  0.00  0.00  0.00  0.00
  L_4250                  1.00   0.00  0.00  0.00  0.73  0.00  0.00  0.00  0.00  0.00
  L_4150                  1.00   0.00  0.00  0.00  0.73  0.00  0.00  0.00  0.00  0.00
  L_4050                  1.00   0.00  0.00  0.00  0.73  0.00  0.00  0.00  0.00  0.00
  L_3950                  1.00   0.00  0.00  0.00  0.73  0.00  0.00  0.00  0.00  0.00
  L_3850                  1.00   0.00  0.00  0.00  0.73  0.00  0.00  0.00  0.00  0.00
  L_3750                  1.00   0.00  0.00  0.00  0.73  0.00  0.00  0.00  0.00  0.00
  L_3650                  1.00   0.00  0.00  0.00  0.73  0.00  0.00  0.00  0.00  0.00
  L_3550                  1.00   0.00  0.00  0.00  0.73  0.00  0.00  0.00  0.00  0.00
  L_3450                  1.00   0.00  0.00  0.00  0.73  0.00  0.00  0.00  0.00  0.00
  L_3350                  1.00   0.00  0.00  0.00  0.73  0.00  0.00  0.00  0.00  0.00
  L_3250                  1.00   0.00  0.00  0.00  0.73  0.00  0.00  0.00  0.00  0.00
  L_3150                  1.00   0.00  0.00  0.00  0.73  0.00  0.00  0.00  0.00  0.00
  L_3050                  1.00   0.00  0.00  0.00  0.73  0.00  0.00  0.00  0.00  0.00
  L_2950                  1.00   0.00  0.00  0.00  0.73  0.00  0.00  0.00  0.00  0.00
  L_2850                  1.00   0.00  0.00  0.00  0.73  0.00  0.00  0.00  0.00  0.00
  L_2750                  1.00   0.00  0.00  0.00  0.73  0.00  0.00  0.00  0.00  0.00
  L_2650                  1.00   0.00  0.00  0.00  0.73  0.00  0.00  0.00  0.00  0.00
  L_2550                  1.00   0.00  0.00  0.00  0.73  0.00  0.00  0.00  0.00  0.00
  L_2450                  1.00   0.00  0.00  0.00  0.73  0.00  0.00  0.00  0.00  0.00
  L_2350                  1.00   0.00  0.00  0.00  0.73  0.00  0.00  0.00  0.00  0.00
  L_2250                  1.00   0.00  0.00  0.00  0.73  0.00  0.00  0.00  0.00  0.00
  L_2150                  1.00   0.00  0.00  0.00  0.73  0.00  0.00  0.00  0.00  0.00
  L_2050                  1.00   0.00  0.00  0.00  0.73  0.00  0.00  0.00  0.00  0.00
  L_1950                  1.00   0.00  0.00  0.00  0.73  0.00  0.00  0.00  0.00  0.00
  L_1850                  1.00   0.00  0.00  0.00  0.73  0.00  0.00  0.00  0.00  0.00
  L_1750                  1.00   0.00  0.00  0.00  0.73  0.00  0.00  0.00  0.00  0.00
  L_1650                  1.00   0.00  0.00  0.00  0.73  0.00  0.00  0.00  0.00  0.00
  L_1550                  1.00   0.00  0.00  0.00  0.73  0.00  0.00  0.00  0.00  0.00
  L_1450                  1.00   0.00  0.00  0.00  0.73  0.00  0.00  0.00  0.00  0.00
  L_1350                  1.00   0.00  0.00  0.00  0.73  0.00  0.00  0.00  0.00  0.00
  L_1250                  1.00   0.00  0.00  0.00  0.73  0.00  0.00  0.00  0.00  0.00
  L_1150                  1.00   0.00  0.00  0.00  0.73  0.00  0.00  0.00  0.00  0.00
  L_1050                  1.00   0.00  0.00  0.00  0.73  0.00  0.00  0.00  0.00  0.00
  L_950                   1.00   0.00  0.00  0.00  0.73  0.00  0.00  0.00  0.00  0.00
  L_850                   1.00   0.00  0.00  0.00  0.73  0.00  0.00  0.00  0.00  0.00
  L_750                   1.00   0.00  0.00  0.00  0.73  0.00  0.00  0.00  0.00  0.00
  L_650                   1.00   0.00  0.00  0.00  0.73  0.00  0.00  0.00  0.00  0.00
  L_550                   1.00   0.00  0.00  0.00  0.73  0.00  0.00  0.00  0.00  0.00
  L_450                   1.00   0.00  0.00  0.00  0.73  0.00  0.00  0.00  0.00  0.00
  L_350                   1.00   0.00  0.00  0.00  0.73  0.00  0.00  0.00  0.00  0.00
  L_250                   1.00   0.00  0.00  0.00  0.73  0.00  0.00  0.00  0.00  0.00
  L_150                   1.00   0.00  0.00  0.00  0.73  0.00  0.00  0.00  0.00  0.00
  L_50                    1.00   0.00  0.00  0.00  0.73  0.00  0.00  0.00  0.05  0.00
  
  
  *************************
  Conduit Surcharge Summary
  *************************
  
  No conduits were surcharged.
  

  Analysis begun on:  Mon Jun  7 16:55:28 2021
  Analysis ended on:  Mon Jun  7 17:01:03 2021
  Total elapsed time: 00:05:35