
  EPA STORM WATER MANAGEMENT MODEL - VERSION 5.1 (Build 5.1.012)
  --------------------------------------------------------------

  
  ERROR 205: invalid keyword RULE_STEP at line 27 of [OPTION] section:
  RULE_STEP

  Analysis begun on:  Tue May 11 18:31:08 2021
  Analysis ended on:  Tue May 11 18:31:08 2021
  Total elapsed time: < 1 sec